6MRG ligand
     RDKit          3D

 45 48  0  0  1  0  0  0  0  0999 V2000
  -27.8219   10.8176   30.5099 C   0  0  0  0  0  0  0  0  0  0  0  0
  -28.1907   11.4136   31.7382 C   0  0  0  0  0  0  0  0  0  0  0  0
  -27.1708    9.5601   30.5413 C   0  0  0  0  0  0  0  0  0  0  0  0
  -27.9088   10.7711   32.9594 C   0  0  0  0  0  0  0  0  0  0  0  0
  -26.9033    8.9060   31.7539 C   0  0  0  0  0  0  0  0  0  0  0  0
  -27.2750    9.4988   32.9606 C   0  0  0  0  0  0  0  0  0  0  0  0
  -28.1088   11.4928   29.2307 C   0  0  0  0  0  0  0  0  0  0  0  0
  -29.1932   12.3767   29.0606 C   0  0  0  0  0  0  0  0  0  0  0  0
  -30.5906   14.4253   26.2379 C   0  0  0  0  0  0  0  0  0  0  0  0
  -29.6098   15.5637   25.9373 C   0  0  2  0  0  0  0  0  0  0  0  0
  -30.8350   17.9923   23.2020 C   0  0  0  0  0  0  0  0  0  0  0  0
  -30.6217   17.4044   24.4673 C   0  0  0  0  0  0  0  0  0  0  0  0
  -29.3605   15.5928   23.4150 C   0  0  0  0  0  0  0  0  0  0  0  0
  -29.7860   16.4659   26.9990 O   0  0  0  0  0  0  0  0  0  0  0  0
  -27.6343   10.8339   35.3043 C   0  0  0  0  0  0  0  0  0  0  0  0
  -29.3314   12.9684   27.7966 C   0  0  0  0  0  0  0  0  0  0  0  0
  -27.4848   11.8604   27.0609 C   0  0  0  0  0  0  0  0  0  0  0  0
  -30.3289   17.3645   22.0392 C   0  0  0  0  0  0  0  0  0  0  0  0
  -29.5870   16.1687   22.1471 C   0  0  0  0  0  0  0  0  0  0  0  0
  -29.8827   16.2023   24.5804 C   0  0  0  0  0  0  0  0  0  0  0  0
  -27.7114    9.2920   35.2594 C   0  0  0  0  0  0  0  0  0  0  0  0
  -28.4718   12.7078   26.7919 N   0  0  0  0  0  0  0  0  0  0  0  0
  -27.2566   11.2401   28.2139 N   0  0  0  0  0  0  0  0  0  0  0  0
  -30.3759   13.8665   27.5746 N   0  0  0  0  0  0  0  0  0  0  0  0
  -27.0088    8.8104   34.1193 O   0  0  0  0  0  0  0  0  0  0  0  0
  -28.2623   11.3833   34.1413 O   0  0  0  0  0  0  0  0  0  0  0  0
  -28.6768   12.3773   31.7502 H   0  0  0  0  0  0  0  0  0  0  0  0
  -26.8702    9.0826   29.6256 H   0  0  0  0  0  0  0  0  0  0  0  0
  -26.4143    7.9477   31.7708 H   0  0  0  0  0  0  0  0  0  0  0  0
  -29.8688   12.6085   29.8667 H   0  0  0  0  0  0  0  0  0  0  0  0
  -31.6080   14.8072   26.1923 H   0  0  0  0  0  0  0  0  0  0  0  0
  -30.5179   13.6568   25.4704 H   0  0  0  0  0  0  0  0  0  0  0  0
  -28.5875   15.1789   25.9632 H   0  0  0  0  0  0  0  0  0  0  0  0
  -31.4291   18.8873   23.1195 H   0  0  0  0  0  0  0  0  0  0  0  0
  -31.0307   17.8724   25.3497 H   0  0  0  0  0  0  0  0  0  0  0  0
  -28.7980   14.6753   23.4908 H   0  0  0  0  0  0  0  0  0  0  0  0
  -29.2880   16.1108   27.7550 H   0  0  0  0  0  0  0  0  0  0  0  0
  -28.1434   11.2076   36.1886 H   0  0  0  0  0  0  0  0  0  0  0  0
  -26.5971   11.1654   35.3558 H   0  0  0  0  0  0  0  0  0  0  0  0
  -26.7884   11.6625   26.2646 H   0  0  0  0  0  0  0  0  0  0  0  0
  -30.5189   17.7992   21.0715 H   0  0  0  0  0  0  0  0  0  0  0  0
  -29.2031   15.6917   21.2617 H   0  0  0  0  0  0  0  0  0  0  0  0
  -28.7473    8.9587   35.2132 H   0  0  0  0  0  0  0  0  0  0  0  0
  -27.2664    8.8657   36.1542 H   0  0  0  0  0  0  0  0  0  0  0  0
  -30.5642   14.4969   28.3466 H   0  0  0  0  0  0  0  0  0  0  0  0
  1  2  2  0
  1  3  1  0
  1  7  1  0
  2  4  1  0
  2 27  1  0
  3  5  2  0
  3 28  1  0
  4  6  2  0
  4 26  1  0
  5  6  1  0
  5 29  1  0
  6 25  1  0
  7  8  2  0
  7 23  1  0
  8 16  1  0
  8 30  1  0
  9 10  1  0
  9 24  1  0
  9 31  1  0
  9 32  1  0
 10 14  1  0
 10 20  1  0
 10 33  1  6
 11 12  2  0
 11 18  1  0
 11 34  1  0
 12 20  1  0
 12 35  1  0
 13 19  1  0
 13 20  2  0
 13 36  1  0
 14 37  1  0
 15 21  1  0
 15 26  1  0
 15 38  1  0
 15 39  1  0
 16 22  2  0
 16 24  1  0
 17 22  1  0
 17 23  2  0
 17 40  1  0
 18 19  2  0
 18 41  1  0
 19 42  1  0
 21 25  1  0
 21 43  1  0
 21 44  1  0
 24 45  1  0
M  END
>  <r_exp_dg>  (1) 
-10.2873

>  <experimental dG reference units>  (1) 
kcal/mol

>  <experimental dG reference field>  (1) 
r_exp_dg

>  <kJ/mol experimental dG>  (1) 
-43.0420632

>  <kcal/mol experimental dG>  (1) 
-10.2873

>  <AmberAM1BCCCache>  (1) 
gASVsgMAAAAAAABdlCiMFm51bXB5Ll9jb3JlLm11bHRpYXJyYXmUjAZzY2FsYXKUk5SMBW51bXB5lIwFZHR5cGWUk5SMAmY4lImIh5RSlChLA4wBPJROTk5K/////0r/////SwB0lGJDCMdTH2AfA/6/lIaUUpRoA2gJQwhry+ndqPbrv5SGlFKUaANoCUMILTW0q8cF9b+UhpRSlGgDaAlDCHwMDYD2hOA/lIaUUpRoA2gJQwjZ4AGTxWL4v5SGlFKUaANoCUMIoSFwhd3i6T+UhpRSlGgDaAlDCEu3r9CWrhhAlIaUUpRoA2gJQwg2jIvt7JcTwJSGlFKUaANoCUMIm2zqAtXPAkCUhpRSlGgDaAlDCE5yBSDdigBAlIaUUpRoA2gJQwjL5O/biTr4v5SGlFKUaANoCUMIiR0g9i339b+UhpRSlGgDaAlDCIkdIPYt9/W/lIaUUpRoA2gJQwjD+By3mYkcwJSGlFKUaANoCUMIiHbgTu8N8T+UhpRSlGgDaAlDCJ2kMlyWjR9AlIaUUpRoA2gJQwiB9ka6r1kfQJSGlFKUaANoCUMIdwe4XXzY9r+UhpRSlGgDaAlDCMvk79uJOvi/lIaUUpRoA2gJQwiWlCzDp2L5v5SGlFKUaANoCUMIiHbgTu8N8T+UhpRSlGgDaAlDCOhJoO5C0CHAlIaUUpRoA2gJQwg63L9BLRUhwJSGlFKUaANoCUMIQygmE2mqI8CUhpRSlGgDaAlDCLhroPsGvQ3AlIaUUpRoA2gJQwjYcG9auYgNwJSGlFKUaANoCUMIRJ26frDY/z+UhpRSlGgDaAlDCNEkg0uqcPo/lIaUUpRoA2gJQwgS7FIxBrT8P5SGlFKUaANoCUMIjuY4y1ns/D+UhpRSlGgDaAlDCDF09cmboug/lIaUUpRoA2gJQwgxdPXJm6LoP5SGlFKUaANoCUMIsaKHJtvH5j+UhpRSlGgDaAlDCHU8FwFEf/k/lIaUUpRoA2gJQwgeKzPASjD6P5SGlFKUaANoCUMIHiszwEow+j+UhpRSlGgDaAlDCAaKkX8PVxNAlIaUUpRoA2gJQwhlP7P4u73qP5SGlFKUaANoCUMIZT+z+Lu96j+UhpRSlGgDaAlDCI3FUF8pWeM/lIaUUpRoA2gJQwhlQAVKCFf5P5SGlFKUaANoCUMIdTwXAUR/+T+UhpRSlGgDaAlDCPlA3xWkreo/lIaUUpRoA2gJQwj5QN8VpK3qP5SGlFKUaANoCUMI7itoP68HFECUhpRSlGUu

$$$$
fig 3
     RDKit          3D

 43 45  0  0  1  0  0  0  0  0999 V2000
  -27.8196   10.8206   30.5136 C   0  0  0  0  0  0  0  0  0  0  0  0
  -27.1695    9.5648   30.5496 C   0  0  0  0  0  0  0  0  0  0  0  0
  -28.1862   11.4154   31.7424 C   0  0  0  0  0  0  0  0  0  0  0  0
  -26.9042    8.9161   31.7716 C   0  0  0  0  0  0  0  0  0  0  0  0
  -27.9122   10.7854   32.9706 C   0  0  0  0  0  0  0  0  0  0  0  0
  -27.2855    9.5135   32.9857 C   0  0  0  0  0  0  0  0  0  0  0  0
  -28.1064   11.4981   29.2305 C   0  0  0  0  0  0  0  0  0  0  0  0
  -29.1902   12.3759   29.0563 C   0  0  0  0  0  0  0  0  0  0  0  0
  -30.5843   14.4272   26.2421 C   0  0  0  0  0  0  0  0  0  0  0  0
  -29.6030   15.5711   25.9398 C   0  0  2  0  0  0  0  0  0  0  0  0
  -30.8509   17.9756   23.2021 C   0  0  0  0  0  0  0  0  0  0  0  0
  -30.6168   17.4031   24.4681 C   0  0  0  0  0  0  0  0  0  0  0  0
  -29.3586   15.5986   23.4191 C   0  0  0  0  0  0  0  0  0  0  0  0
  -29.7458   16.4586   27.0261 O   0  0  0  0  0  0  0  0  0  0  0  0
  -29.3233   12.9701   27.8032 C   0  0  0  0  0  0  0  0  0  0  0  0
  -27.4802   11.8703   27.0699 C   0  0  0  0  0  0  0  0  0  0  0  0
  -30.3387   17.3595   22.0442 C   0  0  0  0  0  0  0  0  0  0  0  0
  -29.5929   16.1701   22.1529 C   0  0  0  0  0  0  0  0  0  0  0  0
  -29.8671   16.2110   24.5846 C   0  0  0  0  0  0  0  0  0  0  0  0
  -28.4623   12.7237   26.8119 N   0  0  0  0  0  0  0  0  0  0  0  0
  -27.2608   11.2462   28.2173 N   0  0  0  0  0  0  0  0  0  0  0  0
  -30.3676   13.8720   27.5798 N   0  0  0  0  0  0  0  0  0  0  0  0
  -26.8922    9.0735   29.6300 H   0  0  0  0  0  0  0  0  0  0  0  0
  -28.6854   12.3739   31.7412 H   0  0  0  0  0  0  0  0  0  0  0  0
  -28.1720   11.2730   33.8987 H   0  0  0  0  0  0  0  0  0  0  0  0
  -29.8829   12.5758   29.8582 H   0  0  0  0  0  0  0  0  0  0  0  0
  -30.4947   13.6431   25.4879 H   0  0  0  0  0  0  0  0  0  0  0  0
  -31.6090   14.7952   26.1785 H   0  0  0  0  0  0  0  0  0  0  0  0
  -28.5742   15.2080   25.9409 H   0  0  0  0  0  0  0  0  0  0  0  0
  -31.4206   18.8899   23.1225 H   0  0  0  0  0  0  0  0  0  0  0  0
  -31.0094   17.8846   25.3523 H   0  0  0  0  0  0  0  0  0  0  0  0
  -28.7844   14.6863   23.4966 H   0  0  0  0  0  0  0  0  0  0  0  0
  -29.7412   15.8916   27.7846 H   0  0  0  0  0  0  0  0  0  0  0  0
  -26.7895   11.6668   26.2654 H   0  0  0  0  0  0  0  0  0  0  0  0
  -30.5158   17.8004   21.0740 H   0  0  0  0  0  0  0  0  0  0  0  0
  -29.1982   15.6973   21.2654 H   0  0  0  0  0  0  0  0  0  0  0  0
  -31.1348   13.9025   28.2334 H   0  0  0  0  0  0  0  0  0  0  0  0
  -26.4067    7.9575   31.7773 H   0  0  0  0  0  0  0  0  0  0  0  0
  -27.0519    8.8700   34.1655 O   0  0  0  0  0  0  0  0  0  0  0  0
  -27.5488    9.7127   35.3025 C   0  0  0  0  0  0  0  0  0  0  0  0
  -27.3125    9.0616   36.4961 F   0  0  0  0  0  0  0  0  0  0  0  0
  -26.8878   10.9241   35.3013 F   0  0  0  0  0  0  0  0  0  0  0  0
  -28.9041    9.9288   35.1577 F   0  0  0  0  0  0  0  0  0  0  0  0
  1  2  2  0
  1  3  1  0
  1  7  1  0
  2  4  1  0
  2 23  1  0
  3  5  2  0
  3 24  1  0
  4  6  2  0
  4 38  1  0
  5  6  1  0
  5 25  1  0
  6 39  1  0
  7  8  2  0
  7 21  1  0
  8 15  1  0
  8 26  1  0
  9 10  1  0
  9 22  1  0
  9 27  1  0
  9 28  1  0
 10 14  1  0
 10 19  1  0
 10 29  1  6
 11 12  2  0
 11 17  1  0
 11 30  1  0
 12 19  1  0
 12 31  1  0
 13 18  1  0
 13 19  2  0
 13 32  1  0
 14 33  1  0
 15 20  2  0
 15 22  1  0
 16 20  1  0
 16 21  2  0
 16 34  1  0
 17 18  2  0
 17 35  1  0
 18 36  1  0
 22 37  1  0
 39 40  1  0
 40 41  1  0
 40 42  1  0
 40 43  1  0
M  END
>  <r_exp_dg>  (2) 
-10.5996

>  <experimental dG reference units>  (2) 
kcal/mol

>  <experimental dG reference field>  (2) 
r_exp_dg

>  <kJ/mol experimental dG>  (2) 
-44.348726400000004

>  <kcal/mol experimental dG>  (2) 
-10.5996

>  <AmberAM1BCCCache>  (2) 
gASVjAMAAAAAAABdlCiMFm51bXB5Ll9jb3JlLm11bHRpYXJyYXmUjAZzY2FsYXKUk5SMBW51bXB5lIwFZHR5cGWUk5SMAmY4lImIh5RSlChLA4wBPJROTk5K/////0r/////SwB0lGJDCLOXZJwg3P6/lIaUUpRoA2gJQwjNfRhqJvbrv5SGlFKUaANoCUMIzX0Yaib267+UhpRSlGgDaAlDCMy4AAEriv2/lIaUUpRoA2gJQwjMuAABK4r9v5SGlFKUaANoCUMItbabaeUw9z+UhpRSlGgDaAlDCORnyp4+aBhAlIaUUpRoA2gJQwhP4mub35kTwJSGlFKUaANoCUMIEa9FZvZ8A0CUhpRSlGgDaAlDCL3DgpgbnwBAlIaUUpRoA2gJQwjVOq9neFr4v5SGlFKUaANoCUMICH3nMI229b+UhpRSlGgDaAlDCAh95zCNtvW/lIaUUpRoA2gJQwhcyKfs7s0cwJSGlFKUaANoCUMIyUnOVuu7H0CUhpRSlGgDaAlDCAmepODgbx9AlIaUUpRoA2gJQwhjZVN786f2v5SGlFKUaANoCUMI1TqvZ3ha+L+UhpRSlGgDaAlDCB3l0ejpuvm/lIaUUpRoA2gJQwjw9ctXLcchwJSGlFKUaANoCUMI5oUpfzskIcCUhpRSlGgDaAlDCFBTFmpiqyPAlIaUUpRoA2gJQwhzlGeIL6T8P5SGlFKUaANoCUMIc5RniC+k/D+UhpRSlGgDaAlDCImBVypOZf0/lIaUUpRoA2gJQwi5j+Mwd9T8P5SGlFKUaANoCUMI/bX8YtEb6T+UhpRSlGgDaAlDCP21/GLRG+k/lIaUUpRoA2gJQwjvMGVGijTkP5SGlFKUaANoCUMIHOCnALWf+T+UhpRSlGgDaAlDCDLNl6LTYPo/lIaUUpRoA2gJQwgyzZei02D6P5SGlFKUaANoCUMIlLCzk093E0CUhpRSlGgDaAlDCGgDaq+a+uM/lIaUUpRoA2gJQwjW5CtYbW/5P5SGlFKUaANoCUMIHOCnALWf+T+UhpRSlGgDaAlDCEjS5E/yKRRAlIaUUpRoA2gJQwiJgVcqTmX9P5SGlFKUaANoCUMI5M0LryJaEcCUhpRSlGgDaAlDCFgLE7JCcCNAlIaUUpRoA2gJQwj9pzq9VTAEwJSGlFKUaANoCUMI/ac6vVUwBMCUhpRSlGgDaAlDCP2nOr1VMATAlIaUUpRlLg==

$$$$
2
     RDKit          3D

 42 44  0  0  1  0  0  0  0  0999 V2000
  -27.8196   10.8206   30.5136 C   0  0  0  0  0  0  0  0  0  0  0  0
  -28.1862   11.4154   31.7424 C   0  0  0  0  0  0  0  0  0  0  0  0
  -27.1695    9.5648   30.5496 C   0  0  0  0  0  0  0  0  0  0  0  0
  -27.9122   10.7854   32.9706 C   0  0  0  0  0  0  0  0  0  0  0  0
  -26.9042    8.9161   31.7716 C   0  0  0  0  0  0  0  0  0  0  0  0
  -27.2855    9.5135   32.9857 C   0  0  0  0  0  0  0  0  0  0  0  0
  -28.1064   11.4981   29.2305 C   0  0  0  0  0  0  0  0  0  0  0  0
  -29.1902   12.3759   29.0563 C   0  0  0  0  0  0  0  0  0  0  0  0
  -30.5843   14.4272   26.2421 C   0  0  0  0  0  0  0  0  0  0  0  0
  -29.6030   15.5711   25.9398 C   0  0  2  0  0  0  0  0  0  0  0  0
  -30.8509   17.9756   23.2021 C   0  0  0  0  0  0  0  0  0  0  0  0
  -30.6168   17.4031   24.4681 C   0  0  0  0  0  0  0  0  0  0  0  0
  -29.3586   15.5986   23.4191 C   0  0  0  0  0  0  0  0  0  0  0  0
  -29.7458   16.4586   27.0261 O   0  0  0  0  0  0  0  0  0  0  0  0
  -29.3233   12.9701   27.8032 C   0  0  0  0  0  0  0  0  0  0  0  0
  -27.4802   11.8703   27.0699 C   0  0  0  0  0  0  0  0  0  0  0  0
  -30.3387   17.3595   22.0442 C   0  0  0  0  0  0  0  0  0  0  0  0
  -29.5929   16.1701   22.1529 C   0  0  0  0  0  0  0  0  0  0  0  0
  -29.8671   16.2110   24.5846 C   0  0  0  0  0  0  0  0  0  0  0  0
  -28.4623   12.7237   26.8119 N   0  0  0  0  0  0  0  0  0  0  0  0
  -27.2608   11.2462   28.2173 N   0  0  0  0  0  0  0  0  0  0  0  0
  -30.3676   13.8720   27.5798 N   0  0  0  0  0  0  0  0  0  0  0  0
  -28.6615   12.3839   31.7532 H   0  0  0  0  0  0  0  0  0  0  0  0
  -26.8723    9.0931   29.6238 H   0  0  0  0  0  0  0  0  0  0  0  0
  -26.4134    7.9540   31.7782 H   0  0  0  0  0  0  0  0  0  0  0  0
  -29.8829   12.5758   29.8582 H   0  0  0  0  0  0  0  0  0  0  0  0
  -30.4947   13.6431   25.4879 H   0  0  0  0  0  0  0  0  0  0  0  0
  -31.6090   14.7952   26.1785 H   0  0  0  0  0  0  0  0  0  0  0  0
  -28.5742   15.2080   25.9409 H   0  0  0  0  0  0  0  0  0  0  0  0
  -31.4206   18.8899   23.1225 H   0  0  0  0  0  0  0  0  0  0  0  0
  -31.0094   17.8846   25.3523 H   0  0  0  0  0  0  0  0  0  0  0  0
  -28.7844   14.6863   23.4966 H   0  0  0  0  0  0  0  0  0  0  0  0
  -29.7412   15.8916   27.7846 H   0  0  0  0  0  0  0  0  0  0  0  0
  -26.7895   11.6668   26.2654 H   0  0  0  0  0  0  0  0  0  0  0  0
  -30.5158   17.8004   21.0740 H   0  0  0  0  0  0  0  0  0  0  0  0
  -29.1982   15.6973   21.2654 H   0  0  0  0  0  0  0  0  0  0  0  0
  -31.1348   13.9025   28.2334 H   0  0  0  0  0  0  0  0  0  0  0  0
  -28.1792   11.2706   33.8978 H   0  0  0  0  0  0  0  0  0  0  0  0
  -27.0277    8.7980   34.3248 C   0  0  0  0  0  0  0  0  0  0  0  0
  -26.5417    7.8404   34.1380 H   0  0  0  0  0  0  0  0  0  0  0  0
  -26.3830    9.4162   34.9495 H   0  0  0  0  0  0  0  0  0  0  0  0
  -27.9756    8.6301   34.8361 H   0  0  0  0  0  0  0  0  0  0  0  0
  1  2  2  0
  1  3  1  0
  1  7  1  0
  2  4  1  0
  2 23  1  0
  3  5  2  0
  3 24  1  0
  4  6  2  0
  4 38  1  0
  5  6  1  0
  5 25  1  0
  6 39  1  0
  7  8  2  0
  7 21  1  0
  8 15  1  0
  8 26  1  0
  9 10  1  0
  9 22  1  0
  9 27  1  0
  9 28  1  0
 10 14  1  0
 10 19  1  0
 10 29  1  6
 11 12  2  0
 11 17  1  0
 11 30  1  0
 12 19  1  0
 12 31  1  0
 13 18  1  0
 13 19  2  0
 13 32  1  0
 14 33  1  0
 15 20  2  0
 15 22  1  0
 16 20  1  0
 16 21  2  0
 16 34  1  0
 17 18  2  0
 17 35  1  0
 18 36  1  0
 22 37  1  0
 39 40  1  0
 39 41  1  0
 39 42  1  0
M  END
>  <r_exp_dg>  (3) 
-8.66521

>  <experimental dG reference units>  (3) 
kcal/mol

>  <experimental dG reference field>  (3) 
r_exp_dg

>  <kJ/mol experimental dG>  (3) 
-36.25523864

>  <kcal/mol experimental dG>  (3) 
-8.66521

>  <AmberAM1BCCCache>  (3) 
gASVeQMAAAAAAABdlCiMFm51bXB5Ll9jb3JlLm11bHRpYXJyYXmUjAZzY2FsYXKUk5SMBW51bXB5lIwFZHR5cGWUk5SMAmY4lImIh5RSlChLA4wBPJROTk5K/////0r/////SwB0lGJDCMjlk63q1v6/lIaUUpRoA2gJQwjHMK2bUqPxv5SGlFKUaANoCUMIxzCtm1Kj8b+UhpRSlGgDaAlDCOdUMrZWaPq/lIaUUpRoA2gJQwjnVDK2Vmj6v5SGlFKUaANoCUMIrCtdO2sh57+UhpRSlGgDaAlDCEeNOJf3sRhAlIaUUpRoA2gJQwjVtbcfkpgTwJSGlFKUaANoCUMIdch4EDik/z+UhpRSlGgDaAlDCA8frbuSiQBAlIaUUpRoA2gJQwgal2p/a8T3v5SGlFKUaANoCUMIYaw8CSnr9r+UhpRSlGgDaAlDCGGsPAkp6/a/lIaUUpRoA2gJQwjjwvRCUj4bwJSGlFKUaANoCUMI/noGKvGMH0CUhpRSlGgDaAlDCA/O+534TB9AlIaUUpRoA2gJQwgEqnrdTAP3v5SGlFKUaANoCUMIGpdqf2vE97+UhpRSlGgDaAlDCJFPGQcGlPi/lIaUUpRoA2gJQwgbXwGPj8whwJSGlFKUaANoCUMIbvEg4nkRIcCUhpRSlGgDaAlDCBe8AJrKtCPAlIaUUpRoA2gJQwhJc562vN76P5SGlFKUaANoCUMISXOetrze+j+UhpRSlGgDaAlDCHybgJ5bRPk/lIaUUpRoA2gJQwijQbQfrdn8P5SGlFKUaANoCUMIS1dSspmy5j+UhpRSlGgDaAlDCEtXUrKZsuY/lIaUUpRoA2gJQwg+jWJlrarxP5SGlFKUaANoCUMIB5J47+qk+T+UhpRSlGgDaAlDCDagBPYTFPk/lIaUUpRoA2gJQwg2oAT2ExT5P5SGlFKUaANoCUMIPuvzFcbnEkCUhpRSlGgDaAlDCLJwEzx3pOM/lIaUUpRoA2gJQwgHknjv6qT5P5SGlFKUaANoCUMIB5J47+qk+T+UhpRSlGgDaAlDCGYJgpCevhNAlIaUUpRoA2gJQwh8m4CeW0T5P5SGlFKUaANoCUMIO1YBT+Zu5b+UhpRSlGgDaAlDCFaO+GTjeuE/lIaUUpRoA2gJQwhWjvhk43rhP5SGlFKUaANoCUMIVo74ZON64T+UhpRSlGUu

$$$$
4
     RDKit          3D

 48 50  0  0  1  0  0  0  0  0999 V2000
  -27.8196   10.8206   30.5136 C   0  0  0  0  0  0  0  0  0  0  0  0
  -28.1862   11.4154   31.7424 C   0  0  0  0  0  0  0  0  0  0  0  0
  -27.1695    9.5648   30.5496 C   0  0  0  0  0  0  0  0  0  0  0  0
  -27.9122   10.7854   32.9706 C   0  0  0  0  0  0  0  0  0  0  0  0
  -26.9042    8.9161   31.7716 C   0  0  0  0  0  0  0  0  0  0  0  0
  -27.2855    9.5135   32.9857 C   0  0  0  0  0  0  0  0  0  0  0  0
  -28.1064   11.4981   29.2305 C   0  0  0  0  0  0  0  0  0  0  0  0
  -29.1902   12.3759   29.0563 C   0  0  0  0  0  0  0  0  0  0  0  0
  -30.5843   14.4272   26.2421 C   0  0  0  0  0  0  0  0  0  0  0  0
  -29.6030   15.5711   25.9398 C   0  0  2  0  0  0  0  0  0  0  0  0
  -30.8509   17.9756   23.2021 C   0  0  0  0  0  0  0  0  0  0  0  0
  -30.6168   17.4031   24.4681 C   0  0  0  0  0  0  0  0  0  0  0  0
  -29.3586   15.5986   23.4191 C   0  0  0  0  0  0  0  0  0  0  0  0
  -29.7458   16.4586   27.0261 O   0  0  0  0  0  0  0  0  0  0  0  0
  -29.3233   12.9701   27.8032 C   0  0  0  0  0  0  0  0  0  0  0  0
  -27.4802   11.8703   27.0699 C   0  0  0  0  0  0  0  0  0  0  0  0
  -30.3387   17.3595   22.0442 C   0  0  0  0  0  0  0  0  0  0  0  0
  -29.5929   16.1701   22.1529 C   0  0  0  0  0  0  0  0  0  0  0  0
  -29.8671   16.2110   24.5846 C   0  0  0  0  0  0  0  0  0  0  0  0
  -28.4623   12.7237   26.8119 N   0  0  0  0  0  0  0  0  0  0  0  0
  -27.2608   11.2462   28.2173 N   0  0  0  0  0  0  0  0  0  0  0  0
  -30.3676   13.8720   27.5798 N   0  0  0  0  0  0  0  0  0  0  0  0
  -28.6615   12.3839   31.7532 H   0  0  0  0  0  0  0  0  0  0  0  0
  -26.8723    9.0931   29.6238 H   0  0  0  0  0  0  0  0  0  0  0  0
  -26.4134    7.9540   31.7782 H   0  0  0  0  0  0  0  0  0  0  0  0
  -29.8829   12.5758   29.8582 H   0  0  0  0  0  0  0  0  0  0  0  0
  -30.4947   13.6431   25.4879 H   0  0  0  0  0  0  0  0  0  0  0  0
  -31.6090   14.7952   26.1785 H   0  0  0  0  0  0  0  0  0  0  0  0
  -28.5742   15.2080   25.9409 H   0  0  0  0  0  0  0  0  0  0  0  0
  -31.4206   18.8899   23.1225 H   0  0  0  0  0  0  0  0  0  0  0  0
  -31.0094   17.8846   25.3523 H   0  0  0  0  0  0  0  0  0  0  0  0
  -28.7844   14.6863   23.4966 H   0  0  0  0  0  0  0  0  0  0  0  0
  -29.7412   15.8916   27.7846 H   0  0  0  0  0  0  0  0  0  0  0  0
  -26.7895   11.6668   26.2654 H   0  0  0  0  0  0  0  0  0  0  0  0
  -30.5158   17.8004   21.0740 H   0  0  0  0  0  0  0  0  0  0  0  0
  -29.1982   15.6973   21.2654 H   0  0  0  0  0  0  0  0  0  0  0  0
  -31.1348   13.9025   28.2334 H   0  0  0  0  0  0  0  0  0  0  0  0
  -28.1792   11.2706   33.8978 H   0  0  0  0  0  0  0  0  0  0  0  0
  -27.0277    8.7980   34.3248 C   0  0  0  0  0  0  0  0  0  0  0  0
  -26.5417    7.8404   34.1380 H   0  0  0  0  0  0  0  0  0  0  0  0
  -26.1169    9.6715   35.2074 C   0  0  0  0  0  0  0  0  0  0  0  0
  -28.3670    8.5609   35.0472 C   0  0  0  0  0  0  0  0  0  0  0  0
  -28.1845    8.0544   35.9949 H   0  0  0  0  0  0  0  0  0  0  0  0
  -28.8535    9.5180   35.2350 H   0  0  0  0  0  0  0  0  0  0  0  0
  -29.0122    7.9421   34.4235 H   0  0  0  0  0  0  0  0  0  0  0  0
  -25.9344    9.1650   36.1552 H   0  0  0  0  0  0  0  0  0  0  0  0
  -25.1684    9.8394   34.6973 H   0  0  0  0  0  0  0  0  0  0  0  0
  -26.6023   10.6292   35.3953 H   0  0  0  0  0  0  0  0  0  0  0  0
  1  2  2  0
  1  3  1  0
  1  7  1  0
  2  4  1  0
  2 23  1  0
  3  5  2  0
  3 24  1  0
  4  6  2  0
  4 38  1  0
  5  6  1  0
  5 25  1  0
  6 39  1  0
  7  8  2  0
  7 21  1  0
  8 15  1  0
  8 26  1  0
  9 10  1  0
  9 22  1  0
  9 27  1  0
  9 28  1  0
 10 14  1  0
 10 19  1  0
 10 29  1  6
 11 12  2  0
 11 17  1  0
 11 30  1  0
 12 19  1  0
 12 31  1  0
 13 18  1  0
 13 19  2  0
 13 32  1  0
 14 33  1  0
 15 20  2  0
 15 22  1  0
 16 20  1  0
 16 21  2  0
 16 34  1  0
 17 18  2  0
 17 35  1  0
 18 36  1  0
 22 37  1  0
 39 40  1  0
 39 41  1  0
 39 42  1  0
 41 46  1  0
 41 47  1  0
 41 48  1  0
 42 43  1  0
 42 44  1  0
 42 45  1  0
M  END
>  <r_exp_dg>  (4) 
-11.3247

>  <experimental dG reference units>  (4) 
kcal/mol

>  <experimental dG reference field>  (4) 
r_exp_dg

>  <kJ/mol experimental dG>  (4) 
-47.382544800000005

>  <kcal/mol experimental dG>  (4) 
-11.3247

>  <AmberAM1BCCCache>  (4) 
gASV6wMAAAAAAABdlCiMFm51bXB5Ll9jb3JlLm11bHRpYXJyYXmUjAZzY2FsYXKUk5SMBW51bXB5lIwFZHR5cGWUk5SMAmY4lImIh5RSlChLA4wBPJROTk5K/////0r/////SwB0lGJDCCzJjaPrQ/6/lIaUUpRoA2gJQwgp+lCw3Rnyv5SGlFKUaANoCUMIKfpQsN0Z8r+UhpRSlGgDaAlDCAU9sAMQpfm/lIaUUpRoA2gJQwgFPbADEKX5v5SGlFKUaANoCUMIc/JQJ2375b+UhpRSlGgDaAlDCFgaH8ddmhhAlIaUUpRoA2gJQwghK5MbCJgTwJSGlFKUaANoCUMIJiJ7vV1QA0CUhpRSlGgDaAlDCHU09sOmigBAlIaUUpRoA2gJQwjBW4o8Pmv4v5SGlFKUaANoCUMI9J3CBVPH9b+UhpRSlGgDaAlDCPSdwgVTx/W/lIaUUpRoA2gJQwhcErCCBcAcwJSGlFKUaANoCUMI4AYMRGmBH0CUhpRSlGgDaAlDCMNYIKKCTR9AlIaUUpRoA2gJQwjyg2wk3dD2v5SGlFKUaANoCUMIwVuKPD5r+L+UhpRSlGgDaAlDCCEN80BEg/m/lIaUUpRoA2gJQwgqmf6BU9IhwJSGlFKUaANoCUMI5qotykYdIcCUhpRSlGgDaAlDCIP4v7hqoiPAlIaUUpRoA2gJQwhyoPLywMj6P5SGlFKUaANoCUMIcqDy8sDI+j+UhpRSlGgDaAlDCEjGEq+DRvk/lIaUUpRoA2gJQwhvbEYw1dv8P5SGlFKUaANoCUMIJHRGuUX66D+UhpRSlGgDaAlDCCR0RrlF+ug/lIaUUpRoA2gJQwhb6ipFRkPkP5SGlFKUaANoCUMIjcGOV8t2+T+UhpRSlGgDaAlDCOmp+qExaPo/lIaUUpRoA2gJQwjpqfqhMWj6P5SGlFKUaANoCUMI8GhtKRVtE0CUhpRSlGgDaAlDCDXZR7uo5+I/lIaUUpRoA2gJQwhIxhKvg0b5P5SGlFKUaANoCUMIjcGOV8t2+T+UhpRSlGgDaAlDCAKNYBGUBxRAlIaUUpRoA2gJQwhIxhKvg0b5P5SGlFKUaANoCUMIqaai7VXm07+UhpRSlGgDaAlDCEf9OqMnguM/lIaUUpRoA2gJQwgdubBjdJzwv5SGlFKUaANoCUMIHbmwY3Sc8L+UhpRSlGgDaAlDCMwMXxoTFNw/lIaUUpRoA2gJQwjMDF8aExTcP5SGlFKUaANoCUMIzAxfGhMU3D+UhpRSlGgDaAlDCMwMXxoTFNw/lIaUUpRoA2gJQwjMDF8aExTcP5SGlFKUaANoCUMIzAxfGhMU3D+UhpRSlGUu

$$$$
6
     RDKit          3D

 42 44  0  0  1  0  0  0  0  0999 V2000
  -27.8196   10.8206   30.5136 C   0  0  0  0  0  0  0  0  0  0  0  0
  -28.1862   11.4154   31.7424 C   0  0  0  0  0  0  0  0  0  0  0  0
  -27.1695    9.5648   30.5496 C   0  0  0  0  0  0  0  0  0  0  0  0
  -27.9122   10.7854   32.9706 C   0  0  0  0  0  0  0  0  0  0  0  0
  -26.9042    8.9161   31.7716 C   0  0  0  0  0  0  0  0  0  0  0  0
  -27.2855    9.5135   32.9857 C   0  0  0  0  0  0  0  0  0  0  0  0
  -28.1064   11.4981   29.2305 C   0  0  0  0  0  0  0  0  0  0  0  0
  -29.1902   12.3759   29.0563 C   0  0  0  0  0  0  0  0  0  0  0  0
  -30.5843   14.4272   26.2421 C   0  0  0  0  0  0  0  0  0  0  0  0
  -29.6030   15.5711   25.9398 C   0  0  2  0  0  0  0  0  0  0  0  0
  -30.8509   17.9756   23.2021 C   0  0  0  0  0  0  0  0  0  0  0  0
  -30.6168   17.4031   24.4681 C   0  0  0  0  0  0  0  0  0  0  0  0
  -29.3586   15.5986   23.4191 C   0  0  0  0  0  0  0  0  0  0  0  0
  -29.7458   16.4586   27.0261 O   0  0  0  0  0  0  0  0  0  0  0  0
  -29.3233   12.9701   27.8032 C   0  0  0  0  0  0  0  0  0  0  0  0
  -27.4802   11.8703   27.0699 C   0  0  0  0  0  0  0  0  0  0  0  0
  -30.3387   17.3595   22.0442 C   0  0  0  0  0  0  0  0  0  0  0  0
  -29.5929   16.1701   22.1529 C   0  0  0  0  0  0  0  0  0  0  0  0
  -29.8671   16.2110   24.5846 C   0  0  0  0  0  0  0  0  0  0  0  0
  -28.4623   12.7237   26.8119 N   0  0  0  0  0  0  0  0  0  0  0  0
  -27.2608   11.2462   28.2173 N   0  0  0  0  0  0  0  0  0  0  0  0
  -30.3676   13.8720   27.5798 N   0  0  0  0  0  0  0  0  0  0  0  0
  -28.6615   12.3839   31.7532 H   0  0  0  0  0  0  0  0  0  0  0  0
  -26.8723    9.0931   29.6238 H   0  0  0  0  0  0  0  0  0  0  0  0
  -26.4134    7.9540   31.7782 H   0  0  0  0  0  0  0  0  0  0  0  0
  -29.8829   12.5758   29.8582 H   0  0  0  0  0  0  0  0  0  0  0  0
  -30.4947   13.6431   25.4879 H   0  0  0  0  0  0  0  0  0  0  0  0
  -31.6090   14.7952   26.1785 H   0  0  0  0  0  0  0  0  0  0  0  0
  -28.5742   15.2080   25.9409 H   0  0  0  0  0  0  0  0  0  0  0  0
  -31.4206   18.8899   23.1225 H   0  0  0  0  0  0  0  0  0  0  0  0
  -31.0094   17.8846   25.3523 H   0  0  0  0  0  0  0  0  0  0  0  0
  -28.7844   14.6863   23.4966 H   0  0  0  0  0  0  0  0  0  0  0  0
  -29.7412   15.8916   27.7846 H   0  0  0  0  0  0  0  0  0  0  0  0
  -26.7895   11.6668   26.2654 H   0  0  0  0  0  0  0  0  0  0  0  0
  -30.5158   17.8004   21.0740 H   0  0  0  0  0  0  0  0  0  0  0  0
  -29.1982   15.6973   21.2654 H   0  0  0  0  0  0  0  0  0  0  0  0
  -31.1348   13.9025   28.2334 H   0  0  0  0  0  0  0  0  0  0  0  0
  -28.1792   11.2706   33.8978 H   0  0  0  0  0  0  0  0  0  0  0  0
  -27.0277    8.7980   34.3248 C   0  0  0  0  0  0  0  0  0  0  0  0
  -26.4124    7.5856   34.0883 F   0  0  0  0  0  0  0  0  0  0  0  0
  -26.2115    9.5807   35.1157 F   0  0  0  0  0  0  0  0  0  0  0  0
  -28.2278    8.5855   34.9721 F   0  0  0  0  0  0  0  0  0  0  0  0
  1  2  2  0
  1  3  1  0
  1  7  1  0
  2  4  1  0
  2 23  1  0
  3  5  2  0
  3 24  1  0
  4  6  2  0
  4 38  1  0
  5  6  1  0
  5 25  1  0
  6 39  1  0
  7  8  2  0
  7 21  1  0
  8 15  1  0
  8 26  1  0
  9 10  1  0
  9 22  1  0
  9 27  1  0
  9 28  1  0
 10 14  1  0
 10 19  1  0
 10 29  1  6
 11 12  2  0
 11 17  1  0
 11 30  1  0
 12 19  1  0
 12 31  1  0
 13 18  1  0
 13 19  2  0
 13 32  1  0
 14 33  1  0
 15 20  2  0
 15 22  1  0
 16 20  1  0
 16 21  2  0
 16 34  1  0
 17 18  2  0
 17 35  1  0
 18 36  1  0
 22 37  1  0
 39 40  1  0
 39 41  1  0
 39 42  1  0
M  END
>  <r_exp_dg>  (5) 
-10.4205

>  <experimental dG reference units>  (5) 
kcal/mol

>  <experimental dG reference field>  (5) 
r_exp_dg

>  <kJ/mol experimental dG>  (5) 
-43.599372

>  <kcal/mol experimental dG>  (5) 
-10.4205

>  <AmberAM1BCCCache>  (5) 
gASVeQMAAAAAAABdlCiMFm51bXB5Ll9jb3JlLm11bHRpYXJyYXmUjAZzY2FsYXKUk5SMBW51bXB5lIwFZHR5cGWUk5SMAmY4lImIh5RSlChLA4wBPJROTk5K/////0r/////SwB0lGJDCAb63u4tvfa/lIaUUpRoA2gJQwj0QJsP++jzv5SGlFKUaANoCUMI9ECbD/vo87+UhpRSlGgDaAlDCFaRX984tPC/lIaUUpRoA2gJQwhWkV/fOLTwv5SGlFKUaANoCUMIWw9Dq3AO/r+UhpRSlGgDaAlDCMcM4LtX/BdAlIaUUpRoA2gJQwjKTMOa3WgTwJSGlFKUaANoCUMI7uVgQkdmA0CUhpRSlGgDaAlDCD3420iQoABAlIaUUpRoA2gJQwjV0fwGj1f4v5SGlFKUaANoCUMICBQ10KOz9b+UhpRSlGgDaAlDCAgUNdCjs/W/lIaUUpRoA2gJQwgcLnuUNM0cwJSGlFKUaANoCUMICeT6rqW8H0CUhpRSlGgDaAlDCEk40TibcB9AlIaUUpRoA2gJQwhj/KAaCqX2v5SGlFKUaANoCUMI1dH8Bo9X+L+UhpRSlGgDaAlDCGN3mzBI6Pm/lIaUUpRoA2gJQwj/qZZBvrohwJSGlFKUaANoCUMIi7rkc8MRIcCUhpRSlGgDaAlDCGOGpUECqSPAlIaUUpRoA2gJQwhb9tNlhO/8P5SGlFKUaANoCUMIW/bTZYTv/D+UhpRSlGgDaAlDCFv202WE7/w/lIaUUpRoA2gJQwj+8xE6qAf9P5SGlFKUaANoCUMIQoPdzOtR6T+UhpRSlGgDaAlDCEKD3czrUek/lIaUUpRoA2gJQwjuAsoHXTrkP5SGlFKUaANoCUMIHElaYZ6i+T+UhpRSlGgDaAlDCDI2SgO9Y/o/lIaUUpRoA2gJQwgyNkoDvWP6P5SGlFKUaANoCUMIpEn/1RuEE0CUhpRSlGgDaAlDCPPLxsH8YOQ/lIaUUpRoA2gJQwjWTd64VnL5P5SGlFKUaANoCUMIHElaYZ6i+T+UhpRSlGgDaAlDCFlrMJK+NhRAlIaUUpRoA2gJQwhb9tNlhO/8P5SGlFKUaANoCUMIvmlWPtAyIECUhpRSlGgDaAlDCMpjWA4JUgbAlIaUUpRoA2gJQwjKY1gOCVIGwJSGlFKUaANoCUMIymNYDglSBsCUhpRSlGUu

$$$$
9
     RDKit          3D

 46 48  0  0  1  0  0  0  0  0999 V2000
  -27.8210   10.8173   30.5071 C   0  0  0  0  0  0  0  0  0  0  0  0
  -28.1904   11.4148   31.7276 C   0  0  0  0  0  0  0  0  0  0  0  0
  -27.1702    9.5602   30.5436 C   0  0  0  0  0  0  0  0  0  0  0  0
  -27.9163   10.7663   32.9244 C   0  0  0  0  0  0  0  0  0  0  0  0
  -26.9080    8.9104   31.7633 C   0  0  0  0  0  0  0  0  0  0  0  0
  -27.2926    9.4985   32.9754 C   0  0  0  0  0  0  0  0  0  0  0  0
  -28.1087   11.4926   29.2298 C   0  0  0  0  0  0  0  0  0  0  0  0
  -29.1939   12.3758   29.0595 C   0  0  0  0  0  0  0  0  0  0  0  0
  -30.5939   14.4289   26.2409 C   0  0  0  0  0  0  0  0  0  0  0  0
  -29.6100   15.5623   25.9393 C   0  0  2  0  0  0  0  0  0  0  0  0
  -30.8322   17.9937   23.2019 C   0  0  0  0  0  0  0  0  0  0  0  0
  -30.6214   17.4048   24.4667 C   0  0  0  0  0  0  0  0  0  0  0  0
  -29.3598   15.5932   23.4153 C   0  0  0  0  0  0  0  0  0  0  0  0
  -29.7850   16.4658   26.9997 O   0  0  0  0  0  0  0  0  0  0  0  0
  -29.3315   12.9673   27.7952 C   0  0  0  0  0  0  0  0  0  0  0  0
  -27.4851   11.8593   27.0603 C   0  0  0  0  0  0  0  0  0  0  0  0
  -30.3277   17.3647   22.0394 C   0  0  0  0  0  0  0  0  0  0  0  0
  -29.5862   16.1689   22.1473 C   0  0  0  0  0  0  0  0  0  0  0  0
  -29.8835   16.2013   24.5807 C   0  0  0  0  0  0  0  0  0  0  0  0
  -28.4734   12.7057   26.7901 N   0  0  0  0  0  0  0  0  0  0  0  0
  -27.2567   11.2401   28.2136 N   0  0  0  0  0  0  0  0  0  0  0  0
  -30.3750   13.8656   27.5747 N   0  0  0  0  0  0  0  0  0  0  0  0
  -28.6939   12.3694   31.7519 H   0  0  0  0  0  0  0  0  0  0  0  0
  -26.8628    9.0856   29.6272 H   0  0  0  0  0  0  0  0  0  0  0  0
  -26.4065    7.9558   31.7687 H   0  0  0  0  0  0  0  0  0  0  0  0
  -29.8783   12.5997   29.8613 H   0  0  0  0  0  0  0  0  0  0  0  0
  -31.5973   14.8441   26.2453 H   0  0  0  0  0  0  0  0  0  0  0  0
  -30.5820   13.6729   25.4544 H   0  0  0  0  0  0  0  0  0  0  0  0
  -28.5911   15.1730   25.9934 H   0  0  0  0  0  0  0  0  0  0  0  0
  -31.4248   18.8903   23.1201 H   0  0  0  0  0  0  0  0  0  0  0  0
  -31.0286   17.8807   25.3461 H   0  0  0  0  0  0  0  0  0  0  0  0
  -28.7872   14.6819   23.4935 H   0  0  0  0  0  0  0  0  0  0  0  0
  -29.2841   16.1165   27.7529 H   0  0  0  0  0  0  0  0  0  0  0  0
  -26.7922   11.6565   26.2624 H   0  0  0  0  0  0  0  0  0  0  0  0
  -30.5184   17.7992   21.0713 H   0  0  0  0  0  0  0  0  0  0  0  0
  -29.1995   15.6934   21.2620 H   0  0  0  0  0  0  0  0  0  0  0  0
  -30.5125   14.5201   28.3375 H   0  0  0  0  0  0  0  0  0  0  0  0
  -28.2713   11.2844   33.7220 H   0  0  0  0  0  0  0  0  0  0  0  0
  -27.0276    8.7815   34.1267 O   0  0  0  0  0  0  0  0  0  0  0  0
  -27.4814    9.3079   35.3738 C   0  0  0  0  0  0  0  0  0  0  0  0
  -26.9165   10.7264   35.6232 C   0  0  0  0  0  0  0  0  0  0  0  0
  -28.5690    9.3233   35.3891 H   0  0  0  0  0  0  0  0  0  0  0  0
  -27.1434    8.6584   36.1850 H   0  0  0  0  0  0  0  0  0  0  0  0
  -26.5046   10.8385   36.8692 F   0  0  0  0  0  0  0  0  0  0  0  0
  -25.8845   10.9670   34.7929 F   0  0  0  0  0  0  0  0  0  0  0  0
  -27.8512   11.6709   35.5446 F   0  0  0  0  0  0  0  0  0  0  0  0
  1  2  2  0
  1  3  1  0
  1  7  1  0
  2  4  1  0
  2 23  1  0
  3  5  2  0
  3 24  1  0
  4  6  2  0
  4 38  1  0
  5  6  1  0
  5 25  1  0
  6 39  1  0
  7  8  2  0
  7 21  1  0
  8 15  1  0
  8 26  1  0
  9 10  1  0
  9 22  1  0
  9 27  1  0
  9 28  1  0
 10 14  1  0
 10 19  1  0
 10 29  1  6
 11 12  2  0
 11 17  1  0
 11 30  1  0
 12 19  1  0
 12 31  1  0
 13 18  1  0
 13 19  2  0
 13 32  1  0
 14 33  1  0
 15 20  2  0
 15 22  1  0
 16 20  1  0
 16 21  2  0
 16 34  1  0
 17 18  2  0
 17 35  1  0
 18 36  1  0
 22 37  1  0
 39 40  1  0
 40 41  1  0
 40 42  1  0
 40 43  1  0
 41 44  1  0
 41 45  1  0
 41 46  1  0
M  END
>  <r_exp_dg>  (6) 
-10.5657

>  <experimental dG reference units>  (6) 
kcal/mol

>  <experimental dG reference field>  (6) 
r_exp_dg

>  <kJ/mol experimental dG>  (6) 
-44.2068888

>  <kcal/mol experimental dG>  (6) 
-10.5657

>  <AmberAM1BCCCache>  (6) 
gASVxQMAAAAAAABdlCiMFm51bXB5Ll9jb3JlLm11bHRpYXJyYXmUjAZzY2FsYXKUk5SMBW51bXB5lIwFZHR5cGWUk5SMAmY4lImIh5RSlChLA4wBPJROTk5K/////0r/////SwB0lGJDCB9hNrPo7QDAlIaUUpRoA2gJQwiXum2+0Lfov5SGlFKUaANoCUMIl7ptvtC36L+UhpRSlGgDaAlDCIfgRajx8wDAlIaUUpRoA2gJQwiH4EWo8fMAwJSGlFKUaANoCUMIxCF57oBv+D+UhpRSlGgDaAlDCAbFw6vBnxhAlIaUUpRoA2gJQwgWfiwLyKoTwJSGlFKUaANoCUMIVHbjcDdnA0CUhpRSlGgDaAlDCKOIXneAoQBAlIaUUpRoA2gJQwgJsfeprlX4v5SGlFKUaANoCUMIDfJOXdW99b+UhpRSlGgDaAlDCA3yTl3VvfW/lIaUUpRoA2gJQwjq5Tl9vMwcwJSGlFKUaANoCUMIay0d3AuxH0CUhpRSlGgDaAlDCKuB82UBZR9AlIaUUpRoA2gJQwiW25u9KaP2v5SGlFKUaANoCUMICbH3qa5V+L+UhpRSlGgDaAlDCFFbGisgtvm/lIaUUpRoA2gJQwgfhCQVncwhwJSGlFKUaANoCUMIfZORMbQvIcCUhpRSlGgDaAlDCEniBDbGqCPAlIaUUpRoA2gJQwhvLKtMIhj8P5SGlFKUaANoCUMIbyyrTCIY/D+UhpRSlGgDaAlDCCkxL6Ta5/s/lIaUUpRoA2gJQwjiG10aHcH8P5SGlFKUaANoCUMI9MstCkEN6T+UhpRSlGgDaAlDCPTLLQpBDek/lIaUUpRoA2gJQwiHRNTBHT7kP5SGlFKUaANoCUMIF2tA1GyY+T+UhpRSlGgDaAlDCP5WT2CdZfo/lIaUUpRoA2gJQwj+Vk9gnWX6P5SGlFKUaANoCUMIBpMhA4J4E0CUhpRSlGgDaAlDCHYg4dmeo+M/lIaUUpRoA2gJQwijbuMVN3T5P5SGlFKUaANoCUMIF2tA1GyY+T+UhpRSlGgDaAlDCOq1M9USHxRAlIaUUpRoA2gJQwgpMS+k2uf7P5SGlFKUaANoCUMIZFVHpGOmDcCUhpRSlGgDaAlDCO2nFlXuCvE/lIaUUpRoA2gJQwgWKAQtu9wdQJSGlFKUaANoCUMIAlHFJoj07T+UhpRSlGgDaAlDCAJRxSaI9O0/lIaUUpRoA2gJQwhDvT4iLrAFwJSGlFKUaANoCUMIQ70+Ii6wBcCUhpRSlGgDaAlDCEO9PiIusAXAlIaUUpRlLg==

$$$$
11
     RDKit          3D

 46 48  0  0  1  0  0  0  0  0999 V2000
  -27.8196   10.8206   30.5136 C   0  0  0  0  0  0  0  0  0  0  0  0
  -27.1695    9.5648   30.5496 C   0  0  0  0  0  0  0  0  0  0  0  0
  -28.1862   11.4154   31.7424 C   0  0  0  0  0  0  0  0  0  0  0  0
  -26.9042    8.9161   31.7716 C   0  0  0  0  0  0  0  0  0  0  0  0
  -27.9122   10.7854   32.9706 C   0  0  0  0  0  0  0  0  0  0  0  0
  -27.2855    9.5135   32.9857 C   0  0  0  0  0  0  0  0  0  0  0  0
  -28.1064   11.4981   29.2305 C   0  0  0  0  0  0  0  0  0  0  0  0
  -29.1902   12.3759   29.0563 C   0  0  0  0  0  0  0  0  0  0  0  0
  -30.5843   14.4272   26.2421 C   0  0  0  0  0  0  0  0  0  0  0  0
  -29.6030   15.5711   25.9398 C   0  0  2  0  0  0  0  0  0  0  0  0
  -30.8509   17.9756   23.2021 C   0  0  0  0  0  0  0  0  0  0  0  0
  -30.6168   17.4031   24.4681 C   0  0  0  0  0  0  0  0  0  0  0  0
  -29.3586   15.5986   23.4191 C   0  0  0  0  0  0  0  0  0  0  0  0
  -29.7458   16.4586   27.0261 O   0  0  0  0  0  0  0  0  0  0  0  0
  -29.3233   12.9701   27.8032 C   0  0  0  0  0  0  0  0  0  0  0  0
  -27.4802   11.8703   27.0699 C   0  0  0  0  0  0  0  0  0  0  0  0
  -30.3387   17.3595   22.0442 C   0  0  0  0  0  0  0  0  0  0  0  0
  -29.5929   16.1701   22.1529 C   0  0  0  0  0  0  0  0  0  0  0  0
  -29.8671   16.2110   24.5846 C   0  0  0  0  0  0  0  0  0  0  0  0
  -28.4623   12.7237   26.8119 N   0  0  0  0  0  0  0  0  0  0  0  0
  -27.2608   11.2462   28.2173 N   0  0  0  0  0  0  0  0  0  0  0  0
  -30.3676   13.8720   27.5798 N   0  0  0  0  0  0  0  0  0  0  0  0
  -26.8922    9.0735   29.6300 H   0  0  0  0  0  0  0  0  0  0  0  0
  -28.6854   12.3739   31.7412 H   0  0  0  0  0  0  0  0  0  0  0  0
  -28.1720   11.2730   33.8987 H   0  0  0  0  0  0  0  0  0  0  0  0
  -29.8829   12.5758   29.8582 H   0  0  0  0  0  0  0  0  0  0  0  0
  -30.4947   13.6431   25.4879 H   0  0  0  0  0  0  0  0  0  0  0  0
  -31.6090   14.7952   26.1785 H   0  0  0  0  0  0  0  0  0  0  0  0
  -28.5742   15.2080   25.9409 H   0  0  0  0  0  0  0  0  0  0  0  0
  -31.4206   18.8899   23.1225 H   0  0  0  0  0  0  0  0  0  0  0  0
  -31.0094   17.8846   25.3523 H   0  0  0  0  0  0  0  0  0  0  0  0
  -28.7844   14.6863   23.4966 H   0  0  0  0  0  0  0  0  0  0  0  0
  -29.7412   15.8916   27.7846 H   0  0  0  0  0  0  0  0  0  0  0  0
  -26.7895   11.6668   26.2654 H   0  0  0  0  0  0  0  0  0  0  0  0
  -30.5158   17.8004   21.0740 H   0  0  0  0  0  0  0  0  0  0  0  0
  -29.1982   15.6973   21.2654 H   0  0  0  0  0  0  0  0  0  0  0  0
  -31.1348   13.9025   28.2334 H   0  0  0  0  0  0  0  0  0  0  0  0
  -26.4067    7.9575   31.7773 H   0  0  0  0  0  0  0  0  0  0  0  0
  -26.9909    8.7020   34.4734 S   0  0  0  0  0  0  0  0  0  0  0  0
  -27.5839    9.7077   35.8302 C   0  0  0  0  0  0  0  0  0  0  0  0
  -27.3972    9.1934   36.7730 H   0  0  0  0  0  0  0  0  0  0  0  0
  -27.0618   10.6645   35.8293 H   0  0  0  0  0  0  0  0  0  0  0  0
  -29.0963    9.9489   35.6686 C   0  0  0  0  0  0  0  0  0  0  0  0
  -29.4574   10.5612   36.4949 H   0  0  0  0  0  0  0  0  0  0  0  0
  -29.2840   10.4637   34.7264 H   0  0  0  0  0  0  0  0  0  0  0  0
  -29.6195    8.9926   35.6701 H   0  0  0  0  0  0  0  0  0  0  0  0
  1  2  2  0
  1  3  1  0
  1  7  1  0
  2  4  1  0
  2 23  1  0
  3  5  2  0
  3 24  1  0
  4  6  2  0
  4 38  1  0
  5  6  1  0
  5 25  1  0
  6 39  1  0
  7  8  2  0
  7 21  1  0
  8 15  1  0
  8 26  1  0
  9 10  1  0
  9 22  1  0
  9 27  1  0
  9 28  1  0
 10 14  1  0
 10 19  1  0
 10 29  1  6
 11 12  2  0
 11 17  1  0
 11 30  1  0
 12 19  1  0
 12 31  1  0
 13 18  1  0
 13 19  2  0
 13 32  1  0
 14 33  1  0
 15 20  2  0
 15 22  1  0
 16 20  1  0
 16 21  2  0
 16 34  1  0
 17 18  2  0
 17 35  1  0
 18 36  1  0
 22 37  1  0
 39 40  1  0
 40 41  1  0
 40 42  1  0
 40 43  1  0
 43 44  1  0
 43 45  1  0
 43 46  1  0
M  END
>  <r_exp_dg>  (7) 
-12.1228

>  <experimental dG reference units>  (7) 
kcal/mol

>  <experimental dG reference field>  (7) 
r_exp_dg

>  <kJ/mol experimental dG>  (7) 
-50.7217952

>  <kcal/mol experimental dG>  (7) 
-12.1228

>  <AmberAM1BCCCache>  (7) 
gASVxQMAAAAAAABdlCiMFm51bXB5Ll9jb3JlLm11bHRpYXJyYXmUjAZzY2FsYXKUk5SMBW51bXB5lIwFZHR5cGWUk5SMAmY4lImIh5RSlChLA4wBPJROTk5K/////0r/////SwB0lGJDCALVV6yo9v+/lIaUUpRoA2gJQwht+P6JNivuv5SGlFKUaANoCUMIbfj+iTYr7r+UhpRSlGgDaAlDCNDLLEOgOfu/lIaUUpRoA2gJQwjQyyxDoDn7v5SGlFKUaANoCUMIJUIRn9Hhxj+UhpRSlGgDaAlDCGCKQZRzshhAlIaUUpRoA2gJQwhweDadGpsTwJSGlFKUaANoCUMIXYZTpEpWA0CUhpRSlGgDaAlDCEMZv7WKigBAlIaUUpRoA2gJQwgmkvhYdmv4v5SGlFKUaANoCUMIWtQwIovH9b+UhpRSlGgDaAlDCFrUMCKLx/W/lIaUUpRoA2gJQwj2n8uJE8AcwJSGlFKUaANoCUMI+jh4t1+EH0CUhpRSlGgDaAlDCCnLBJt0TR9AlIaUUpRoA2gJQwhYutpAFdH2v5SGlFKUaANoCUMIJpL4WHZr+L+UhpRSlGgDaAlDCIZDYV18g/m/lIaUUpRoA2gJQwj4X4yFWtIhwJSGlFKUaANoCUMIG/HKwlYjIcCUhpRSlGgDaAlDCAR/1TZ2pSPAlIaUUpRoA2gJQwgC4IscIS/7P5SGlFKUaANoCUMIAuCLHCEv+z+UhpRSlGgDaAlDCNf4AOioMfo/lIaUUpRoA2gJQwhoOJo/ecP8P5SGlFKUaANoCUMIWgdqgNX56D+UhpRSlGgDaAlDCFoHaoDV+eg/lIaUUpRoA2gJQwiQfU4M1kLkP5SGlFKUaANoCUMIKIsgO5N2+T+UhpRSlGgDaAlDCIRzjIX5Z/o/lIaUUpRoA2gJQwiEc4yF+Wf6P5SGlFKUaANoCUMIVttRIgdtE0CUhpRSlGgDaAlDCK9n5yqAF+M/lIaUUpRoA2gJQwjjj6SSS0b5P5SGlFKUaANoCUMIKIsgO5N2+T+UhpRSlGgDaAlDCNF+VP+ODRRAlIaUUpRoA2gJQwjX+ADoqDH6P5SGlFKUaANoCUMIC9R4tqjgAMCUhpRSlGgDaAlDCCRVtCaov9u/lIaUUpRoA2gJQwhrpld+ktfsP5SGlFKUaANoCUMIa6ZXfpLX7D+UhpRSlGgDaAlDCK/J/sPpHvK/lIaUUpRoA2gJQwjopGvARy7hP5SGlFKUaANoCUMI6KRrwEcu4T+UhpRSlGgDaAlDCOika8BHLuE/lIaUUpRlLg==

$$$$
12
     RDKit          3D

 43 45  0  0  1  0  0  0  0  0999 V2000
  -27.8196   10.8206   30.5136 C   0  0  0  0  0  0  0  0  0  0  0  0
  -27.1695    9.5648   30.5496 C   0  0  0  0  0  0  0  0  0  0  0  0
  -28.1862   11.4154   31.7424 C   0  0  0  0  0  0  0  0  0  0  0  0
  -26.9042    8.9161   31.7716 C   0  0  0  0  0  0  0  0  0  0  0  0
  -27.9122   10.7854   32.9706 C   0  0  0  0  0  0  0  0  0  0  0  0
  -27.2855    9.5135   32.9857 C   0  0  0  0  0  0  0  0  0  0  0  0
  -28.1064   11.4981   29.2305 C   0  0  0  0  0  0  0  0  0  0  0  0
  -29.1902   12.3759   29.0563 C   0  0  0  0  0  0  0  0  0  0  0  0
  -30.5843   14.4272   26.2421 C   0  0  0  0  0  0  0  0  0  0  0  0
  -29.6030   15.5711   25.9398 C   0  0  2  0  0  0  0  0  0  0  0  0
  -30.8509   17.9756   23.2021 C   0  0  0  0  0  0  0  0  0  0  0  0
  -30.6168   17.4031   24.4681 C   0  0  0  0  0  0  0  0  0  0  0  0
  -29.3586   15.5986   23.4191 C   0  0  0  0  0  0  0  0  0  0  0  0
  -29.7458   16.4586   27.0261 O   0  0  0  0  0  0  0  0  0  0  0  0
  -29.3233   12.9701   27.8032 C   0  0  0  0  0  0  0  0  0  0  0  0
  -27.4802   11.8703   27.0699 C   0  0  0  0  0  0  0  0  0  0  0  0
  -30.3387   17.3595   22.0442 C   0  0  0  0  0  0  0  0  0  0  0  0
  -29.5929   16.1701   22.1529 C   0  0  0  0  0  0  0  0  0  0  0  0
  -29.8671   16.2110   24.5846 C   0  0  0  0  0  0  0  0  0  0  0  0
  -28.4623   12.7237   26.8119 N   0  0  0  0  0  0  0  0  0  0  0  0
  -27.2608   11.2462   28.2173 N   0  0  0  0  0  0  0  0  0  0  0  0
  -30.3676   13.8720   27.5798 N   0  0  0  0  0  0  0  0  0  0  0  0
  -26.8922    9.0735   29.6300 H   0  0  0  0  0  0  0  0  0  0  0  0
  -28.6854   12.3739   31.7412 H   0  0  0  0  0  0  0  0  0  0  0  0
  -28.1720   11.2730   33.8987 H   0  0  0  0  0  0  0  0  0  0  0  0
  -29.8829   12.5758   29.8582 H   0  0  0  0  0  0  0  0  0  0  0  0
  -30.4947   13.6431   25.4879 H   0  0  0  0  0  0  0  0  0  0  0  0
  -31.6090   14.7952   26.1785 H   0  0  0  0  0  0  0  0  0  0  0  0
  -28.5742   15.2080   25.9409 H   0  0  0  0  0  0  0  0  0  0  0  0
  -31.4206   18.8899   23.1225 H   0  0  0  0  0  0  0  0  0  0  0  0
  -31.0094   17.8846   25.3523 H   0  0  0  0  0  0  0  0  0  0  0  0
  -28.7844   14.6863   23.4966 H   0  0  0  0  0  0  0  0  0  0  0  0
  -29.7412   15.8916   27.7846 H   0  0  0  0  0  0  0  0  0  0  0  0
  -26.7895   11.6668   26.2654 H   0  0  0  0  0  0  0  0  0  0  0  0
  -30.5158   17.8004   21.0740 H   0  0  0  0  0  0  0  0  0  0  0  0
  -29.1982   15.6973   21.2654 H   0  0  0  0  0  0  0  0  0  0  0  0
  -31.1348   13.9025   28.2334 H   0  0  0  0  0  0  0  0  0  0  0  0
  -26.4067    7.9575   31.7773 H   0  0  0  0  0  0  0  0  0  0  0  0
  -26.9909    8.7020   34.4734 S   0  0  0  0  0  0  0  0  0  0  0  0
  -27.5839    9.7077   35.8302 C   0  0  0  0  0  0  0  0  0  0  0  0
  -27.3476    9.0566   37.0238 F   0  0  0  0  0  0  0  0  0  0  0  0
  -26.9229   10.9190   35.8290 F   0  0  0  0  0  0  0  0  0  0  0  0
  -28.9392    9.9233   35.6846 F   0  0  0  0  0  0  0  0  0  0  0  0
  1  2  2  0
  1  3  1  0
  1  7  1  0
  2  4  1  0
  2 23  1  0
  3  5  2  0
  3 24  1  0
  4  6  2  0
  4 38  1  0
  5  6  1  0
  5 25  1  0
  6 39  1  0
  7  8  2  0
  7 21  1  0
  8 15  1  0
  8 26  1  0
  9 10  1  0
  9 22  1  0
  9 27  1  0
  9 28  1  0
 10 14  1  0
 10 19  1  0
 10 29  1  6
 11 12  2  0
 11 17  1  0
 11 30  1  0
 12 19  1  0
 12 31  1  0
 13 18  1  0
 13 19  2  0
 13 32  1  0
 14 33  1  0
 15 20  2  0
 15 22  1  0
 16 20  1  0
 16 21  2  0
 16 34  1  0
 17 18  2  0
 17 35  1  0
 18 36  1  0
 22 37  1  0
 39 40  1  0
 40 41  1  0
 40 42  1  0
 40 43  1  0
M  END
>  <r_exp_dg>  (8) 
-11.0462

>  <experimental dG reference units>  (8) 
kcal/mol

>  <experimental dG reference field>  (8) 
r_exp_dg

>  <kJ/mol experimental dG>  (8) 
-46.217300800000004

>  <kcal/mol experimental dG>  (8) 
-11.0462

>  <AmberAM1BCCCache>  (8) 
gASVjAMAAAAAAABdlCiMFm51bXB5Ll9jb3JlLm11bHRpYXJyYXmUjAZzY2FsYXKUk5SMBW51bXB5lIwFZHR5cGWUk5SMAmY4lImIh5RSlChLA4wBPJROTk5K/////0r/////SwB0lGJDCEbrDjsxUPW/lIaUUpRoA2gJQwgw8XOo1xP1v5SGlFKUaANoCUMIMPFzqNcT9b+UhpRSlGgDaAlDCOgJo64wXu6/lIaUUpRoA2gJQwjoCaOuMF7uv5SGlFKUaANoCUMIKYc7i0A04b+UhpRSlGgDaAlDCISazKL+8BdAlIaUUpRoA2gJQwg8wLfJJGgTwJSGlFKUaANoCUMI2v2WzspzA0CUhpRSlGgDaAlDCFgR8+oBogBAlIaUUpRoA2gJQwifn87Cq1T4v5SGlFKUaANoCUMI0uEGjMCw9b+UhpRSlGgDaAlDCNLhBozAsPW/lIaUUpRoA2gJQwj3IH+4hNIcwJSGlFKUaANoCUMI/+8VdWfDH0CUhpRSlGgDaAlDCNfE3AlUcR9AlIaUUpRoA2gJQwgtynLWJqL2v5SGlFKUaANoCUMIn5/OwqtU+L+UhpRSlGgDaAlDCC1Fbexk5fm/lIaUUpRoA2gJQwi44xDZYbohwJSGlFKUaANoCUMI3HRPFl4LIcCUhpRSlGgDaAlDCBzAH9mlqCPAlIaUUpRoA2gJQwh7LmcXDrb8P5SGlFKUaANoCUMIey5nFw62/D+UhpRSlGgDaAlDCHsuZxcOtvw/lIaUUpRoA2gJQwg0JkB+iwr9P5SGlFKUaANoCUMIsOc5VbJX6T+UhpRSlGgDaAlDCLDnOVWyV+k/lIaUUpRoA2gJQwhbZyaQI0DkP5SGlFKUaANoCUMIUnuIpYGl+T+UhpRSlGgDaAlDCGhoeEegZvo/lIaUUpRoA2gJQwhoaHhHoGb6P5SGlFKUaANoCUMIMtYKp9SEE0CUhpRSlGgDaAlDCGAwI0rDZuQ/lIaUUpRoA2gJQwgMgAz9OXX5P5SGlFKUaANoCUMIUnuIpYGl+T+UhpRSlGgDaAlDCOf3O2N3NxRAlIaUUpRoA2gJQwh7LmcXDrb8P5SGlFKUaANoCUMIacv2TixyAcCUhpRSlGgDaAlDCOo9Qs6qqiBAlIaUUpRoA2gJQwi0otTfnPoEwJSGlFKUaANoCUMItKLU35z6BMCUhpRSlGgDaAlDCLSi1N+c+gTAlIaUUpRlLg==

$$$$
15
     RDKit          3D

 43 45  0  0  1  0  0  0  0  0999 V2000
  -27.8196   10.8206   30.5136 C   0  0  0  0  0  0  0  0  0  0  0  0
  -28.1862   11.4154   31.7424 C   0  0  0  0  0  0  0  0  0  0  0  0
  -27.1695    9.5648   30.5496 C   0  0  0  0  0  0  0  0  0  0  0  0
  -27.9122   10.7854   32.9706 C   0  0  0  0  0  0  0  0  0  0  0  0
  -26.9042    8.9161   31.7716 C   0  0  0  0  0  0  0  0  0  0  0  0
  -27.2855    9.5135   32.9857 C   0  0  0  0  0  0  0  0  0  0  0  0
  -28.1064   11.4981   29.2305 C   0  0  0  0  0  0  0  0  0  0  0  0
  -29.1902   12.3759   29.0563 C   0  0  0  0  0  0  0  0  0  0  0  0
  -30.5843   14.4272   26.2421 C   0  0  0  0  0  0  0  0  0  0  0  0
  -29.6030   15.5711   25.9398 C   0  0  2  0  0  0  0  0  0  0  0  0
  -29.5929   16.1701   22.1529 C   0  0  0  0  0  0  0  0  0  0  0  0
  -29.3586   15.5986   23.4191 C   0  0  0  0  0  0  0  0  0  0  0  0
  -30.6168   17.4031   24.4681 C   0  0  0  0  0  0  0  0  0  0  0  0
  -29.7458   16.4586   27.0261 O   0  0  0  0  0  0  0  0  0  0  0  0
  -29.3233   12.9701   27.8032 C   0  0  0  0  0  0  0  0  0  0  0  0
  -27.4802   11.8703   27.0699 C   0  0  0  0  0  0  0  0  0  0  0  0
  -30.3387   17.3595   22.0442 C   0  0  0  0  0  0  0  0  0  0  0  0
  -30.8509   17.9756   23.2021 C   0  0  0  0  0  0  0  0  0  0  0  0
  -29.8671   16.2110   24.5846 C   0  0  0  0  0  0  0  0  0  0  0  0
  -28.4623   12.7237   26.8119 N   0  0  0  0  0  0  0  0  0  0  0  0
  -27.2608   11.2462   28.2173 N   0  0  0  0  0  0  0  0  0  0  0  0
  -30.3676   13.8720   27.5798 N   0  0  0  0  0  0  0  0  0  0  0  0
  -28.6662   12.3823   31.7481 H   0  0  0  0  0  0  0  0  0  0  0  0
  -26.8741    9.0942   29.6226 H   0  0  0  0  0  0  0  0  0  0  0  0
  -26.4109    7.9547   31.7741 H   0  0  0  0  0  0  0  0  0  0  0  0
  -29.8951   12.5718   29.8483 H   0  0  0  0  0  0  0  0  0  0  0  0
  -30.4985   13.6417   25.4895 H   0  0  0  0  0  0  0  0  0  0  0  0
  -31.6090   14.7953   26.1862 H   0  0  0  0  0  0  0  0  0  0  0  0
  -28.5752   15.2049   25.9394 H   0  0  0  0  0  0  0  0  0  0  0  0
  -29.2018   15.6948   21.2649 H   0  0  0  0  0  0  0  0  0  0  0  0
  -28.7884   14.6833   23.4957 H   0  0  0  0  0  0  0  0  0  0  0  0
  -31.0276   17.8780   25.3476 H   0  0  0  0  0  0  0  0  0  0  0  0
  -29.7412   15.8916   27.7846 H   0  0  0  0  0  0  0  0  0  0  0  0
  -26.7894   11.6666   26.2654 H   0  0  0  0  0  0  0  0  0  0  0  0
  -30.5204   17.7973   21.0732 H   0  0  0  0  0  0  0  0  0  0  0  0
  -31.4282   18.8851   23.1197 H   0  0  0  0  0  0  0  0  0  0  0  0
  -30.5171   14.5541   28.3087 H   0  0  0  0  0  0  0  0  0  0  0  0
  -28.1936   11.2610   33.8992 H   0  0  0  0  0  0  0  0  0  0  0  0
  -27.0047    8.8239   34.2879 C   0  0  0  0  0  0  0  0  0  0  0  0
  -26.1180    8.1985   34.1839 H   0  0  0  0  0  0  0  0  0  0  0  0
  -26.8344    9.5694   35.0645 H   0  0  0  0  0  0  0  0  0  0  0  0
  -28.1783    7.9689   34.6642 C   0  0  0  0  0  0  0  0  0  0  0  0
  -29.0681    7.3006   34.9807 N   0  0  0  0  0  0  0  0  0  0  0  0
  1  2  2  0
  1  3  1  0
  1  7  1  0
  2  4  1  0
  2 23  1  0
  3  5  2  0
  3 24  1  0
  4  6  2  0
  4 38  1  0
  5  6  1  0
  5 25  1  0
  6 39  1  0
  7  8  2  0
  7 21  1  0
  8 15  1  0
  8 26  1  0
  9 10  1  0
  9 22  1  0
  9 27  1  0
  9 28  1  0
 10 14  1  0
 10 19  1  0
 10 29  1  6
 11 12  2  0
 11 17  1  0
 11 30  1  0
 12 19  1  0
 12 31  1  0
 13 18  1  0
 13 19  2  0
 13 32  1  0
 14 33  1  0
 15 20  2  0
 15 22  1  0
 16 20  1  0
 16 21  2  0
 16 34  1  0
 17 18  2  0
 17 35  1  0
 18 36  1  0
 22 37  1  0
 39 40  1  0
 39 41  1  0
 39 42  1  0
 42 43  3  0
M  END
>  <r_exp_dg>  (9) 
-8.59027

>  <experimental dG reference units>  (9) 
kcal/mol

>  <experimental dG reference field>  (9) 
r_exp_dg

>  <kJ/mol experimental dG>  (9) 
-35.94168968

>  <kcal/mol experimental dG>  (9) 
-8.59027

>  <AmberAM1BCCCache>  (9) 
gASVjAMAAAAAAABdlCiMFm51bXB5Ll9jb3JlLm11bHRpYXJyYXmUjAZzY2FsYXKUk5SMBW51bXB5lIwFZHR5cGWUk5SMAmY4lImIh5RSlChLA4wBPJROTk5K/////0r/////SwB0lGJDCAdgJtNwg/u/lIaUUpRoA2gJQwi5R2uTuUXyv5SGlFKUaANoCUMIuUdrk7lF8r+UhpRSlGgDaAlDCNfIFGc8Vfe/lIaUUpRoA2gJQwjXyBRnPFX3v5SGlFKUaANoCUMIj8gIr84u7r+UhpRSlGgDaAlDCHsLNyIiYRhAlIaUUpRoA2gJQwixQHY83owTwJSGlFKUaANoCUMIMRRjl/c8AkCUhpRSlGgDaAlDCCIKxpDumABAlIaUUpRoA2gJQwhatNjrcib4v5SGlFKUaANoCUMIyuZYkXYj9r+UhpRSlGgDaAlDCMrmWJF2I/a/lIaUUpRoA2gJQwiOMnxoOkgcwJSGlFKUaANoCUMIje4b8LyoH0CUhpRSlGgDaAlDCAVCXGu+ZB9AlIaUUpRoA2gJQwgH16BtZcT2v5SGlFKUaANoCUMIWrTY63Im+L+UhpRSlGgDaAlDCMphU6e0Zvm/lIaUUpRoA2gJQwi8JAahssQhwJSGlFKUaANoCUMIEjbq4asTIcCUhpRSlGgDaAlDCLaBBaztrCPAlIaUUpRoA2gJQwhNN1YRh7b7P5SGlFKUaANoCUMITTdWEYe2+z+UhpRSlGgDaAlDCN1h+iQCBPo/lIaUUpRoA2gJQwiBHGohHcj8P5SGlFKUaANoCUMIUd/BZy5i6D+UhpRSlGgDaAlDCFHfwWcuYug/lIaUUpRoA2gJQwhByVnPfEPpP5SGlFKUaANoCUMIG2yY4mab+T+UhpRSlGgDaAlDCHFjJkLq8/k/lIaUUpRoA2gJQwhxYyZC6vP5P5SGlFKUaANoCUMIG1gOYPdHE0CUhpRSlGgDaAlDCPkcd5Dm4eM/lIaUUpRoA2gJQwh4bloOQ4P5P5SGlFKUaANoCUMIG2yY4mab+T+UhpRSlGgDaAlDCKF4XgasBhRAlIaUUpRoA2gJQwjdYfokAgT6P5SGlFKUaANoCUMIvOABGYPR0j+UhpRSlGgDaAlDCJVJbZQLW+4/lIaUUpRoA2gJQwiVSW2UC1vuP5SGlFKUaANoCUMIEh0fiBLtA0CUhpRSlGgDaAlDCDVFsEP4UxHAlIaUUpRlLg==

$$$$
14
     RDKit          3D

 39 41  0  0  1  0  0  0  0  0999 V2000
  -27.8196   10.8206   30.5136 C   0  0  0  0  0  0  0  0  0  0  0  0
  -28.1862   11.4154   31.7424 C   0  0  0  0  0  0  0  0  0  0  0  0
  -27.1695    9.5648   30.5496 C   0  0  0  0  0  0  0  0  0  0  0  0
  -27.9122   10.7854   32.9706 C   0  0  0  0  0  0  0  0  0  0  0  0
  -26.9042    8.9161   31.7716 C   0  0  0  0  0  0  0  0  0  0  0  0
  -27.2855    9.5135   32.9857 C   0  0  0  0  0  0  0  0  0  0  0  0
  -28.1064   11.4981   29.2305 C   0  0  0  0  0  0  0  0  0  0  0  0
  -29.1902   12.3759   29.0563 C   0  0  0  0  0  0  0  0  0  0  0  0
  -30.5843   14.4272   26.2421 C   0  0  0  0  0  0  0  0  0  0  0  0
  -29.6030   15.5711   25.9398 C   0  0  2  0  0  0  0  0  0  0  0  0
  -30.8509   17.9756   23.2021 C   0  0  0  0  0  0  0  0  0  0  0  0
  -30.6168   17.4031   24.4681 C   0  0  0  0  0  0  0  0  0  0  0  0
  -29.3586   15.5986   23.4191 C   0  0  0  0  0  0  0  0  0  0  0  0
  -29.7458   16.4586   27.0261 O   0  0  0  0  0  0  0  0  0  0  0  0
  -29.3233   12.9701   27.8032 C   0  0  0  0  0  0  0  0  0  0  0  0
  -27.4802   11.8703   27.0699 C   0  0  0  0  0  0  0  0  0  0  0  0
  -30.3387   17.3595   22.0442 C   0  0  0  0  0  0  0  0  0  0  0  0
  -29.5929   16.1701   22.1529 C   0  0  0  0  0  0  0  0  0  0  0  0
  -29.8671   16.2110   24.5846 C   0  0  0  0  0  0  0  0  0  0  0  0
  -28.4623   12.7237   26.8119 N   0  0  0  0  0  0  0  0  0  0  0  0
  -27.2608   11.2462   28.2173 N   0  0  0  0  0  0  0  0  0  0  0  0
  -30.3676   13.8720   27.5798 N   0  0  0  0  0  0  0  0  0  0  0  0
  -28.6615   12.3839   31.7532 H   0  0  0  0  0  0  0  0  0  0  0  0
  -26.8723    9.0931   29.6238 H   0  0  0  0  0  0  0  0  0  0  0  0
  -26.4134    7.9540   31.7782 H   0  0  0  0  0  0  0  0  0  0  0  0
  -29.8829   12.5758   29.8582 H   0  0  0  0  0  0  0  0  0  0  0  0
  -30.4947   13.6431   25.4879 H   0  0  0  0  0  0  0  0  0  0  0  0
  -31.6090   14.7952   26.1785 H   0  0  0  0  0  0  0  0  0  0  0  0
  -28.5742   15.2080   25.9409 H   0  0  0  0  0  0  0  0  0  0  0  0
  -31.4206   18.8899   23.1225 H   0  0  0  0  0  0  0  0  0  0  0  0
  -31.0094   17.8846   25.3523 H   0  0  0  0  0  0  0  0  0  0  0  0
  -28.7844   14.6863   23.4966 H   0  0  0  0  0  0  0  0  0  0  0  0
  -29.7412   15.8916   27.7846 H   0  0  0  0  0  0  0  0  0  0  0  0
  -26.7895   11.6668   26.2654 H   0  0  0  0  0  0  0  0  0  0  0  0
  -30.5158   17.8004   21.0740 H   0  0  0  0  0  0  0  0  0  0  0  0
  -29.1982   15.6973   21.2654 H   0  0  0  0  0  0  0  0  0  0  0  0
  -31.1348   13.9025   28.2334 H   0  0  0  0  0  0  0  0  0  0  0  0
  -28.1792   11.2706   33.8978 H   0  0  0  0  0  0  0  0  0  0  0  0
  -27.0624    8.8941   34.1448 F   0  0  0  0  0  0  0  0  0  0  0  0
  1  2  2  0
  1  3  1  0
  1  7  1  0
  2  4  1  0
  2 23  1  0
  3  5  2  0
  3 24  1  0
  4  6  2  0
  4 38  1  0
  5  6  1  0
  5 25  1  0
  6 39  1  0
  7  8  2  0
  7 21  1  0
  8 15  1  0
  8 26  1  0
  9 10  1  0
  9 22  1  0
  9 27  1  0
  9 28  1  0
 10 14  1  0
 10 19  1  0
 10 29  1  6
 11 12  2  0
 11 17  1  0
 11 30  1  0
 12 19  1  0
 12 31  1  0
 13 18  1  0
 13 19  2  0
 13 32  1  0
 14 33  1  0
 15 20  2  0
 15 22  1  0
 16 20  1  0
 16 21  2  0
 16 34  1  0
 17 18  2  0
 17 35  1  0
 18 36  1  0
 22 37  1  0
M  END
>  <r_exp_dg>  (10) 
-7.84252

>  <experimental dG reference units>  (10) 
kcal/mol

>  <experimental dG reference field>  (10) 
r_exp_dg

>  <kJ/mol experimental dG>  (10) 
-32.813103680000005

>  <kcal/mol experimental dG>  (10) 
-7.84252

>  <AmberAM1BCCCache>  (10) 
gASVQAMAAAAAAABdlCiMFm51bXB5Ll9jb3JlLm11bHRpYXJyYXmUjAZzY2FsYXKUk5SMBW51bXB5lIwFZHR5cGWUk5SMAmY4lImIh5RSlChLA4wBPJROTk5K/////0r/////SwB0lGJDCJJFQWY+EwDAlIaUUpRoA2gJQwjgpoyT8+brv5SGlFKUaANoCUMI4KaMk/Pm67+UhpRSlGgDaAlDCBw8ObfNcwDAlIaUUpRoA2gJQwgcPDm3zXMAwJSGlFKUaANoCUMI/CimxQkD+j+UhpRSlGgDaAlDCDbf+LdajhhAlIaUUpRoA2gJQwgVZdgUHbATwJSGlFKUaANoCUMInrCy9g8IA0CUhpRSlGgDaAlDCBu3YyIMuwBAlIaUUpRoA2gJQwgBTafQAmv4v5SGlFKUaANoCUMIeHAFYekA97+UhpRSlGgDaAlDCHhwBWHpAPe/lIaUUpRoA2gJQwjzY4kxtOYbwJSGlFKUaANoCUMIp8SfsdG9H0CUhpRSlGgDaAlDCBYaV1G1ZR9AlIaUUpRoA2gJQwgydYm4odD2v5SGlFKUaANoCUMIAU2n0AJr+L+UhpRSlGgDaAlDCBnP52nVZfu/lIaUUpRoA2gJQwjeOiVWFq4hwJSGlFKUaANoCUMIDkmxXD8dIcCUhpRSlGgDaAlDCIgSsP6hzCPAlIaUUpRoA2gJQwi8i3fOFTP8P5SGlFKUaANoCUMIvIt3zhUz/D+UhpRSlGgDaAlDCKSEMUuBe/w/lIaUUpRoA2gJQwjqf63zyKv8P5SGlFKUaANoCUMIXGLkJYnd6j+UhpRSlGgDaAlDCFxi5CWJ3eo/lIaUUpRoA2gJQwhPEfnLLePjP5SGlFKUaANoCUMIk8vta06n+T+UhpRSlGgDaAlDCDKv1V78yPo/lIaUUpRoA2gJQwgyr9Ve/Mj6P5SGlFKUaANoCUMIzi1HGhJhE0CUhpRSlGgDaAlDCFTa9YXNCeQ/lIaUUpRoA2gJQwiTy+1rTqf5P5SGlFKUaANoCUMIk8vta06n+T+UhpRSlGgDaAlDCMlXn283vxNAlIaUUpRoA2gJQwikhDFLgXv8P5SGlFKUaANoCUMI9YYBmtcw+r+UhpRSlGUu

$$$$
19
     RDKit          3D

 43 45  0  0  1  0  0  0  0  0999 V2000
  -27.8196   10.8206   30.5136 C   0  0  0  0  0  0  0  0  0  0  0  0
  -27.1695    9.5648   30.5496 C   0  0  0  0  0  0  0  0  0  0  0  0
  -28.1862   11.4154   31.7424 C   0  0  0  0  0  0  0  0  0  0  0  0
  -26.9042    8.9161   31.7716 C   0  0  0  0  0  0  0  0  0  0  0  0
  -27.9122   10.7854   32.9706 C   0  0  0  0  0  0  0  0  0  0  0  0
  -27.2855    9.5135   32.9857 C   0  0  0  0  0  0  0  0  0  0  0  0
  -28.1064   11.4981   29.2305 C   0  0  0  0  0  0  0  0  0  0  0  0
  -29.1902   12.3759   29.0563 C   0  0  0  0  0  0  0  0  0  0  0  0
  -30.5843   14.4272   26.2421 C   0  0  0  0  0  0  0  0  0  0  0  0
  -29.6030   15.5711   25.9398 C   0  0  2  0  0  0  0  0  0  0  0  0
  -30.8509   17.9756   23.2021 C   0  0  0  0  0  0  0  0  0  0  0  0
  -30.6168   17.4031   24.4681 C   0  0  0  0  0  0  0  0  0  0  0  0
  -29.3586   15.5986   23.4191 C   0  0  0  0  0  0  0  0  0  0  0  0
  -29.7458   16.4586   27.0261 O   0  0  0  0  0  0  0  0  0  0  0  0
  -29.3233   12.9701   27.8032 C   0  0  0  0  0  0  0  0  0  0  0  0
  -27.4802   11.8703   27.0699 C   0  0  0  0  0  0  0  0  0  0  0  0
  -30.3387   17.3595   22.0442 C   0  0  0  0  0  0  0  0  0  0  0  0
  -29.5929   16.1701   22.1529 C   0  0  0  0  0  0  0  0  0  0  0  0
  -29.8671   16.2110   24.5846 C   0  0  0  0  0  0  0  0  0  0  0  0
  -28.4623   12.7237   26.8119 N   0  0  0  0  0  0  0  0  0  0  0  0
  -27.2608   11.2462   28.2173 N   0  0  0  0  0  0  0  0  0  0  0  0
  -30.3676   13.8720   27.5798 N   0  0  0  0  0  0  0  0  0  0  0  0
  -26.8922    9.0735   29.6300 H   0  0  0  0  0  0  0  0  0  0  0  0
  -28.6854   12.3739   31.7412 H   0  0  0  0  0  0  0  0  0  0  0  0
  -28.2403   11.4012   34.1427 O   0  0  0  0  0  0  0  0  0  0  0  0
  -29.8829   12.5758   29.8582 H   0  0  0  0  0  0  0  0  0  0  0  0
  -30.4947   13.6431   25.4879 H   0  0  0  0  0  0  0  0  0  0  0  0
  -31.6090   14.7952   26.1785 H   0  0  0  0  0  0  0  0  0  0  0  0
  -28.5742   15.2080   25.9409 H   0  0  0  0  0  0  0  0  0  0  0  0
  -31.4206   18.8899   23.1225 H   0  0  0  0  0  0  0  0  0  0  0  0
  -31.0094   17.8846   25.3523 H   0  0  0  0  0  0  0  0  0  0  0  0
  -28.7844   14.6863   23.4966 H   0  0  0  0  0  0  0  0  0  0  0  0
  -29.7412   15.8916   27.7846 H   0  0  0  0  0  0  0  0  0  0  0  0
  -26.7895   11.6668   26.2654 H   0  0  0  0  0  0  0  0  0  0  0  0
  -30.5158   17.8004   21.0740 H   0  0  0  0  0  0  0  0  0  0  0  0
  -29.1982   15.6973   21.2654 H   0  0  0  0  0  0  0  0  0  0  0  0
  -31.1348   13.9025   28.2334 H   0  0  0  0  0  0  0  0  0  0  0  0
  -26.4067    7.9575   31.7773 H   0  0  0  0  0  0  0  0  0  0  0  0
  -27.1005    9.0040   33.9198 H   0  0  0  0  0  0  0  0  0  0  0  0
  -27.8458   10.5263   35.2955 C   0  0  0  0  0  0  0  0  0  0  0  0
  -28.1080   11.0183   36.2321 H   0  0  0  0  0  0  0  0  0  0  0  0
  -28.3718    9.5741   35.2263 H   0  0  0  0  0  0  0  0  0  0  0  0
  -26.7706   10.3497   35.2670 H   0  0  0  0  0  0  0  0  0  0  0  0
  1  2  2  0
  1  3  1  0
  1  7  1  0
  2  4  1  0
  2 23  1  0
  3  5  2  0
  3 24  1  0
  4  6  2  0
  4 38  1  0
  5  6  1  0
  5 25  1  0
  6 39  1  0
  7  8  2  0
  7 21  1  0
  8 15  1  0
  8 26  1  0
  9 10  1  0
  9 22  1  0
  9 27  1  0
  9 28  1  0
 10 14  1  0
 10 19  1  0
 10 29  1  6
 11 12  2  0
 11 17  1  0
 11 30  1  0
 12 19  1  0
 12 31  1  0
 13 18  1  0
 13 19  2  0
 13 32  1  0
 14 33  1  0
 15 20  2  0
 15 22  1  0
 16 20  1  0
 16 21  2  0
 16 34  1  0
 17 18  2  0
 17 35  1  0
 18 36  1  0
 22 37  1  0
 25 40  1  0
 40 41  1  0
 40 42  1  0
 40 43  1  0
M  END
>  <r_exp_dg>  (11) 
-7.97232

>  <experimental dG reference units>  (11) 
kcal/mol

>  <experimental dG reference field>  (11) 
r_exp_dg

>  <kJ/mol experimental dG>  (11) 
-33.35618688

>  <kcal/mol experimental dG>  (11) 
-7.972320000000001

>  <AmberAM1BCCCache>  (11) 
gASVjAMAAAAAAABdlCiMFm51bXB5Ll9jb3JlLm11bHRpYXJyYXmUjAZzY2FsYXKUk5SMBW51bXB5lIwFZHR5cGWUk5SMAmY4lImIh5RSlChLA4wBPJROTk5K/////0r/////SwB0lGJDCBn44LnZeve/lIaUUpRoA2gJQwizjcYIJrn7v5SGlFKUaANoCUMI7zdXVxLv9L+UhpRSlGgDaAlDCH1i+2qNPPO/lIaUUpRoA2gJQwjRL9gFTOX1P5SGlFKUaANoCUMIGNqGJwMzAsCUhpRSlGgDaAlDCOV9sqzVaRhAlIaUUpRoA2gJQwjazybPEnQTwJSGlFKUaANoCUMIcN3XrQBoA0CUhpRSlGgDaAlDCBzyFOAligBAlIaUUpRoA2gJQwjR4g4wHFT4v5SGlFKUaANoCUMIqCKFzVTI9b+UhpRSlGgDaAlDCKgihc1UyPW/lIaUUpRoA2gJQwhasr/eV8wcwJSGlFKUaANoCUMIs2Ub0iiBH0CUhpRSlGgDaAlDCJa3LzBCTR9AlIaUUpRoA2gJQwilCC/s3tH2v5SGlFKUaANoCUMI0eIOMBxU+L+UhpRSlGgDaAlDCNSRtQhGhPm/lIaUUpRoA2gJQwhYaufFaswhwJSGlFKUaANoCUMI2f3nLkMFIcCUhpRSlGgDaAlDCILIx+aTqCPAlIaUUpRoA2gJQwhmM8TgWNb5P5SGlFKUaANoCUMIi6VLn75+/z+UhpRSlGgDaAlDCHPV3ZsSow7AlIaUUpRoA2gJQwgD4/8QGwv9P5SGlFKUaANoCUMIvmrBKUL46D+UhpRSlGgDaAlDCL5qwSlC+Og/lIaUUpRoA2gJQwj14KW1QkHkP5SGlFKUaANoCUMI2zzMj8l1+T+UhpRSlGgDaAlDCDYlONovZ/o/lIaUUpRoA2gJQwg2JTjaL2f6P5SGlFKUaANoCUMIw8d8t9RsE0CUhpRSlGgDaAlDCFnGunw0RuM/lIaUUpRoA2gJQwiVQVDngUX5P5SGlFKUaANoCUMI2zzMj8l1+T+UhpRSlGgDaAlDCKbqjollExRAlIaUUpRoA2gJQwhQRtQ+OhX5P5SGlFKUaANoCUMIqy5AiaAG+j+UhpRSlGgDaAlDCMTU4ddscfU/lIaUUpRoA2gJQwhy7adUEbzgP5SGlFKUaANoCUMIcu2nVBG84D+UhpRSlGgDaAlDCHLtp1QRvOA/lIaUUpRlLg==

$$$$
20
     RDKit          3D

 42 44  0  0  1  0  0  0  0  0999 V2000
  -27.8196   10.8206   30.5136 C   0  0  0  0  0  0  0  0  0  0  0  0
  -28.1862   11.4154   31.7424 C   0  0  0  0  0  0  0  0  0  0  0  0
  -27.1695    9.5648   30.5496 C   0  0  0  0  0  0  0  0  0  0  0  0
  -27.9122   10.7854   32.9706 C   0  0  0  0  0  0  0  0  0  0  0  0
  -26.9042    8.9161   31.7716 C   0  0  0  0  0  0  0  0  0  0  0  0
  -27.2855    9.5135   32.9857 C   0  0  0  0  0  0  0  0  0  0  0  0
  -28.1064   11.4981   29.2305 C   0  0  0  0  0  0  0  0  0  0  0  0
  -29.1902   12.3759   29.0563 C   0  0  0  0  0  0  0  0  0  0  0  0
  -30.5843   14.4272   26.2421 C   0  0  0  0  0  0  0  0  0  0  0  0
  -29.6030   15.5711   25.9398 C   0  0  2  0  0  0  0  0  0  0  0  0
  -30.8509   17.9756   23.2021 C   0  0  0  0  0  0  0  0  0  0  0  0
  -30.6168   17.4031   24.4681 C   0  0  0  0  0  0  0  0  0  0  0  0
  -29.3586   15.5986   23.4191 C   0  0  0  0  0  0  0  0  0  0  0  0
  -29.7458   16.4586   27.0261 O   0  0  0  0  0  0  0  0  0  0  0  0
  -29.3233   12.9701   27.8032 C   0  0  0  0  0  0  0  0  0  0  0  0
  -27.4802   11.8703   27.0699 C   0  0  0  0  0  0  0  0  0  0  0  0
  -30.3387   17.3595   22.0442 C   0  0  0  0  0  0  0  0  0  0  0  0
  -29.5929   16.1701   22.1529 C   0  0  0  0  0  0  0  0  0  0  0  0
  -29.8671   16.2110   24.5846 C   0  0  0  0  0  0  0  0  0  0  0  0
  -28.4623   12.7237   26.8119 N   0  0  0  0  0  0  0  0  0  0  0  0
  -27.2608   11.2462   28.2173 N   0  0  0  0  0  0  0  0  0  0  0  0
  -30.3676   13.8720   27.5798 N   0  0  0  0  0  0  0  0  0  0  0  0
  -28.6615   12.3839   31.7532 H   0  0  0  0  0  0  0  0  0  0  0  0
  -26.7460    8.8926   29.2304 C   0  0  0  0  0  0  0  0  0  0  0  0
  -26.4134    7.9541   31.7782 H   0  0  0  0  0  0  0  0  0  0  0  0
  -29.8829   12.5758   29.8582 H   0  0  0  0  0  0  0  0  0  0  0  0
  -30.4947   13.6431   25.4879 H   0  0  0  0  0  0  0  0  0  0  0  0
  -31.6090   14.7952   26.1785 H   0  0  0  0  0  0  0  0  0  0  0  0
  -28.5742   15.2080   25.9409 H   0  0  0  0  0  0  0  0  0  0  0  0
  -31.4206   18.8899   23.1225 H   0  0  0  0  0  0  0  0  0  0  0  0
  -31.0094   17.8846   25.3523 H   0  0  0  0  0  0  0  0  0  0  0  0
  -28.7844   14.6863   23.4966 H   0  0  0  0  0  0  0  0  0  0  0  0
  -29.7412   15.8916   27.7846 H   0  0  0  0  0  0  0  0  0  0  0  0
  -26.7895   11.6668   26.2654 H   0  0  0  0  0  0  0  0  0  0  0  0
  -30.5158   17.8004   21.0740 H   0  0  0  0  0  0  0  0  0  0  0  0
  -29.1982   15.6973   21.2654 H   0  0  0  0  0  0  0  0  0  0  0  0
  -31.1348   13.9025   28.2334 H   0  0  0  0  0  0  0  0  0  0  0  0
  -28.1792   11.2706   33.8978 H   0  0  0  0  0  0  0  0  0  0  0  0
  -27.1047    9.0117   33.9248 H   0  0  0  0  0  0  0  0  0  0  0  0
  -26.2632    7.9395   29.4462 H   0  0  0  0  0  0  0  0  0  0  0  0
  -27.6259    8.7215   28.6103 H   0  0  0  0  0  0  0  0  0  0  0  0
  -26.0485    9.5406   28.6995 H   0  0  0  0  0  0  0  0  0  0  0  0
  1  2  2  0
  1  3  1  0
  1  7  1  0
  2  4  1  0
  2 23  1  0
  3  5  2  0
  3 24  1  0
  4  6  2  0
  4 38  1  0
  5  6  1  0
  5 25  1  0
  6 39  1  0
  7  8  2  0
  7 21  1  0
  8 15  1  0
  8 26  1  0
  9 10  1  0
  9 22  1  0
  9 27  1  0
  9 28  1  0
 10 14  1  0
 10 19  1  0
 10 29  1  6
 11 12  2  0
 11 17  1  0
 11 30  1  0
 12 19  1  0
 12 31  1  0
 13 18  1  0
 13 19  2  0
 13 32  1  0
 14 33  1  0
 15 20  2  0
 15 22  1  0
 16 20  1  0
 16 21  2  0
 16 34  1  0
 17 18  2  0
 17 35  1  0
 18 36  1  0
 22 37  1  0
 24 40  1  0
 24 41  1  0
 24 42  1  0
M  END
>  <r_exp_dg>  (12) 
-6.82123

>  <experimental dG reference units>  (12) 
kcal/mol

>  <experimental dG reference field>  (12) 
r_exp_dg

>  <kJ/mol experimental dG>  (12) 
-28.54002632

>  <kcal/mol experimental dG>  (12) 
-6.82123

>  <AmberAM1BCCCache>  (12) 
gASVeQMAAAAAAABdlCiMFm51bXB5Ll9jb3JlLm11bHRpYXJyYXmUjAZzY2FsYXKUk5SMBW51bXB5lIwFZHR5cGWUk5SMAmY4lImIh5RSlChLA4wBPJROTk5K/////0r/////SwB0lGJDCI9SW9MXa/2/lIaUUpRoA2gJQwhEVPZ01iPzv5SGlFKUaANoCUMIzgmxg21k3r+UhpRSlGgDaAlDCNqb2R/Bfvq/lIaUUpRoA2gJQwitp6P6DQb6v5SGlFKUaANoCUMIVQ06VAn49b+UhpRSlGgDaAlDCK0/YkkeghhAlIaUUpRoA2gJQwiGCtTw/38TwJSGlFKUaANoCUMIGGh9aiZQA0CUhpRSlGgDaAlDCGd6+HBvigBAlIaUUpRoA2gJQwgM0Wb4ml/4v5SGlFKUaANoCUMIERK+q8HH9b+UhpRSlGgDaAlDCBESvqvBx/W/lIaUUpRoA2gJQwhk7y4sIcAcwJSGlFKUaANoCUMINixPxilpH0CUhpRSlGgDaAlDCN//NEUoIx9AlIaUUpRoA2gJQwgO+GfKS9H2v5SGlFKUaANoCUMIDNFm+Jpf+L+UhpRSlGgDaAlDCD2B7uayg/m/lIaUUpRoA2gJQwiRyCbnU8khwJSGlFKUaANoCUMI9RyQ4B75IMCUhpRSlGgDaAlDCLsmBwh9pSPAlIaUUpRoA2gJQwjkPEV/Vx/6P5SGlFKUaANoCUMI89XDG5Is5r+UhpRSlGgDaAlDCIlU2TTxLfk/lIaUUpRoA2gJQwiB7ICvGVT9P5SGlFKUaANoCUMI7ItPbWj56D+UhpRSlGgDaAlDCOyLT21o+eg/lIaUUpRoA2gJQwgiAjT5aELkP5SGlFKUaANoCUMIcU2TsVx2+T+UhpRSlGgDaAlDCM01//vCZ/o/lIaUUpRoA2gJQwjNNf/7wmf6P5SGlFKUaANoCUMI6Ivuf/lsE0CUhpRSlGgDaAlDCIbnSMBaR+M/lIaUUpRoA2gJQwgrUhcJFUb5P5SGlFKUaANoCUMIcU2TsVx2+T+UhpRSlGgDaAlDCMuuAFKKExRAlIaUUpRoA2gJQwiJVNk08S35P5SGlFKUaANoCUMIoFsfuIXl+D+UhpRSlGgDaAlDCJzaidVL0OI/lIaUUpRoA2gJQwic2onVS9DiP5SGlFKUaANoCUMInNqJ1UvQ4j+UhpRSlGUu

$$$$
22
     RDKit          3D

 46 48  0  0  1  0  0  0  0  0999 V2000
  -27.8196   10.8206   30.5136 C   0  0  0  0  0  0  0  0  0  0  0  0
  -28.1862   11.4154   31.7424 C   0  0  0  0  0  0  0  0  0  0  0  0
  -27.1695    9.5648   30.5496 C   0  0  0  0  0  0  0  0  0  0  0  0
  -27.9122   10.7854   32.9706 C   0  0  0  0  0  0  0  0  0  0  0  0
  -26.9042    8.9161   31.7716 C   0  0  0  0  0  0  0  0  0  0  0  0
  -27.2855    9.5135   32.9857 C   0  0  0  0  0  0  0  0  0  0  0  0
  -28.1064   11.4981   29.2305 C   0  0  0  0  0  0  0  0  0  0  0  0
  -29.1902   12.3759   29.0563 C   0  0  0  0  0  0  0  0  0  0  0  0
  -30.5843   14.4272   26.2421 C   0  0  0  0  0  0  0  0  0  0  0  0
  -29.6030   15.5711   25.9398 C   0  0  2  0  0  0  0  0  0  0  0  0
  -30.8509   17.9756   23.2021 C   0  0  0  0  0  0  0  0  0  0  0  0
  -30.6168   17.4031   24.4681 C   0  0  0  0  0  0  0  0  0  0  0  0
  -29.3586   15.5986   23.4191 C   0  0  0  0  0  0  0  0  0  0  0  0
  -29.7458   16.4586   27.0261 O   0  0  0  0  0  0  0  0  0  0  0  0
  -29.3233   12.9701   27.8032 C   0  0  0  0  0  0  0  0  0  0  0  0
  -27.4802   11.8703   27.0699 C   0  0  0  0  0  0  0  0  0  0  0  0
  -30.3387   17.3595   22.0442 C   0  0  0  0  0  0  0  0  0  0  0  0
  -29.5929   16.1701   22.1529 C   0  0  0  0  0  0  0  0  0  0  0  0
  -29.8671   16.2110   24.5846 C   0  0  0  0  0  0  0  0  0  0  0  0
  -28.4623   12.7237   26.8119 N   0  0  0  0  0  0  0  0  0  0  0  0
  -27.2608   11.2462   28.2173 N   0  0  0  0  0  0  0  0  0  0  0  0
  -30.3676   13.8720   27.5798 N   0  0  0  0  0  0  0  0  0  0  0  0
  -28.6615   12.3839   31.7532 H   0  0  0  0  0  0  0  0  0  0  0  0
  -26.8723    9.0931   29.6238 H   0  0  0  0  0  0  0  0  0  0  0  0
  -26.4134    7.9540   31.7782 H   0  0  0  0  0  0  0  0  0  0  0  0
  -29.8829   12.5758   29.8582 H   0  0  0  0  0  0  0  0  0  0  0  0
  -30.4947   13.6431   25.4879 H   0  0  0  0  0  0  0  0  0  0  0  0
  -31.6090   14.7952   26.1785 H   0  0  0  0  0  0  0  0  0  0  0  0
  -28.5742   15.2080   25.9409 H   0  0  0  0  0  0  0  0  0  0  0  0
  -31.4206   18.8899   23.1225 H   0  0  0  0  0  0  0  0  0  0  0  0
  -31.0094   17.8846   25.3523 H   0  0  0  0  0  0  0  0  0  0  0  0
  -28.7844   14.6863   23.4966 H   0  0  0  0  0  0  0  0  0  0  0  0
  -29.7412   15.8916   27.7846 H   0  0  0  0  0  0  0  0  0  0  0  0
  -26.7895   11.6668   26.2654 H   0  0  0  0  0  0  0  0  0  0  0  0
  -30.5158   17.8004   21.0740 H   0  0  0  0  0  0  0  0  0  0  0  0
  -29.1982   15.6973   21.2654 H   0  0  0  0  0  0  0  0  0  0  0  0
  -31.1348   13.9025   28.2334 H   0  0  0  0  0  0  0  0  0  0  0  0
  -28.2930   11.4773   34.2927 C   0  0  0  0  0  0  0  0  0  0  0  0
  -27.0572    8.8797   34.1718 O   0  0  0  0  0  0  0  0  0  0  0  0
  -26.3884    7.5619   33.9147 C   0  0  0  0  0  0  0  0  0  0  0  0
  -26.2059    7.0555   34.8625 H   0  0  0  0  0  0  0  0  0  0  0  0
  -27.0326    6.9426   33.2905 H   0  0  0  0  0  0  0  0  0  0  0  0
  -25.4400    7.7287   33.4040 H   0  0  0  0  0  0  0  0  0  0  0  0
  -28.0053   10.8431   35.1313 H   0  0  0  0  0  0  0  0  0  0  0  0
  -27.7739   12.4330   34.3658 H   0  0  0  0  0  0  0  0  0  0  0  0
  -29.3695   11.6462   34.3181 H   0  0  0  0  0  0  0  0  0  0  0  0
  1  2  2  0
  1  3  1  0
  1  7  1  0
  2  4  1  0
  2 23  1  0
  3  5  2  0
  3 24  1  0
  4  6  2  0
  4 38  1  0
  5  6  1  0
  5 25  1  0
  6 39  1  0
  7  8  2  0
  7 21  1  0
  8 15  1  0
  8 26  1  0
  9 10  1  0
  9 22  1  0
  9 27  1  0
  9 28  1  0
 10 14  1  0
 10 19  1  0
 10 29  1  6
 11 12  2  0
 11 17  1  0
 11 30  1  0
 12 19  1  0
 12 31  1  0
 13 18  1  0
 13 19  2  0
 13 32  1  0
 14 33  1  0
 15 20  2  0
 15 22  1  0
 16 20  1  0
 16 21  2  0
 16 34  1  0
 17 18  2  0
 17 35  1  0
 18 36  1  0
 22 37  1  0
 38 44  1  0
 38 45  1  0
 38 46  1  0
 39 40  1  0
 40 41  1  0
 40 42  1  0
 40 43  1  0
M  END
>  <r_exp_dg>  (13) 
-9.97238

>  <experimental dG reference units>  (13) 
kcal/mol

>  <experimental dG reference field>  (13) 
r_exp_dg

>  <kJ/mol experimental dG>  (13) 
-41.72443792

>  <kcal/mol experimental dG>  (13) 
-9.97238

>  <AmberAM1BCCCache>  (13) 
gASVxQMAAAAAAABdlCiMFm51bXB5Ll9jb3JlLm11bHRpYXJyYXmUjAZzY2FsYXKUk5SMBW51bXB5lIwFZHR5cGWUk5SMAmY4lImIh5RSlChLA4wBPJROTk5K/////0r/////SwB0lGJDCGKlrFnt0QHAlIaUUpRoA2gJQwj5fwbgXUzvv5SGlFKUaANoCUMIOZLvsyFc5L+UhpRSlGgDaAlDCJ2e5fgaC/S/lIaUUpRoA2gJQwhecQCXAeUDwJSGlFKUaANoCUMIDVdU2GJL+T+UhpRSlGgDaAlDCCmRWRDM4hhAlIaUUpRoA2gJQwjbqlAjKbATwJSGlFKUaANoCUMIyhybQHVcA0CUhpRSlGgDaAlDCEgw91ysigBAlIaUUpRoA2gJQwgcZIgKM2v4v5SGlFKUaANoCUMIT6bA00fH9b+UhpRSlGgDaAlDCE+mwNNHx/W/lIaUUpRoA2gJQwhzlC+2AsAcwJSGlFKUaANoCUMIyoSMEGyBH0CUhpRSlGgDaAlDCKzWoG6FTR9AlIaUUpRoA2gJQwhNjGry0dD2v5SGlFKUaANoCUMIHGSICjNr+L+UhpRSlGgDaAlDCHwV8Q45g/m/lIaUUpRoA2gJQwie2c0QW9ghwJSGlFKUaANoCUMIK+obQ2AvIcCUhpRSlGgDaAlDCEJ5B81tpSPAlIaUUpRoA2gJQwgDqwSDrQf6P5SGlFKUaANoCUMIiW1QEVF7/D+UhpRSlGgDaAlDCOujvv8YUPo/lIaUUpRoA2gJQwgVZEhi4Nv8P5SGlFKUaANoCUMIKWjOdBTK6D+UhpRSlGgDaAlDCCloznQUyug/lIaUUpRoA2gJQwim2S6pXEPkP5SGlFKUaANoCUMIMrmQidZ2+T+UhpRSlGgDaAlDCI6h/NM8aPo/lIaUUpRoA2gJQwiOofzTPGj6P5SGlFKUaANoCUMI2ebt9RdtE0CUhpRSlGgDaAlDCH/ISx+/5+I/lIaUUpRoA2gJQwjtvRThjkb5P5SGlFKUaANoCUMIMrmQidZ2+T+UhpRSlGgDaAlDCOsK4d2WBxRAlIaUUpRoA2gJQwhmPqMWNITfv5SGlFKUaANoCUMIR5f7HoyiDsCUhpRSlGgDaAlDCNdVKikyQvU/lIaUUpRoA2gJQwj+AExdzi7hP5SGlFKUaANoCUMI/gBMXc4u4T+UhpRSlGgDaAlDCP4ATF3OLuE/lIaUUpRoA2gJQwgqQIo2ha/hP5SGlFKUaANoCUMIKkCKNoWv4T+UhpRSlGgDaAlDCCpAijaFr+E/lIaUUpRlLg==

$$$$
23
     RDKit          3D

 43 45  0  0  1  0  0  0  0  0999 V2000
  -27.8196   10.8206   30.5136 C   0  0  0  0  0  0  0  0  0  0  0  0
  -27.1695    9.5648   30.5496 C   0  0  0  0  0  0  0  0  0  0  0  0
  -28.1862   11.4154   31.7424 C   0  0  0  0  0  0  0  0  0  0  0  0
  -26.9042    8.9161   31.7716 C   0  0  0  0  0  0  0  0  0  0  0  0
  -27.9122   10.7854   32.9706 C   0  0  0  0  0  0  0  0  0  0  0  0
  -27.2855    9.5135   32.9857 C   0  0  0  0  0  0  0  0  0  0  0  0
  -28.1064   11.4981   29.2305 C   0  0  0  0  0  0  0  0  0  0  0  0
  -29.1902   12.3759   29.0563 C   0  0  0  0  0  0  0  0  0  0  0  0
  -30.5843   14.4272   26.2421 C   0  0  0  0  0  0  0  0  0  0  0  0
  -29.6030   15.5711   25.9398 C   0  0  2  0  0  0  0  0  0  0  0  0
  -30.8509   17.9756   23.2021 C   0  0  0  0  0  0  0  0  0  0  0  0
  -30.6168   17.4031   24.4681 C   0  0  0  0  0  0  0  0  0  0  0  0
  -29.3586   15.5986   23.4191 C   0  0  0  0  0  0  0  0  0  0  0  0
  -29.7458   16.4586   27.0261 O   0  0  0  0  0  0  0  0  0  0  0  0
  -29.3233   12.9701   27.8032 C   0  0  0  0  0  0  0  0  0  0  0  0
  -27.4802   11.8703   27.0699 C   0  0  0  0  0  0  0  0  0  0  0  0
  -30.3387   17.3595   22.0442 C   0  0  0  0  0  0  0  0  0  0  0  0
  -29.5929   16.1701   22.1529 C   0  0  0  0  0  0  0  0  0  0  0  0
  -29.8671   16.2110   24.5846 C   0  0  0  0  0  0  0  0  0  0  0  0
  -28.4623   12.7237   26.8119 N   0  0  0  0  0  0  0  0  0  0  0  0
  -27.2608   11.2462   28.2173 N   0  0  0  0  0  0  0  0  0  0  0  0
  -30.3676   13.8720   27.5798 N   0  0  0  0  0  0  0  0  0  0  0  0
  -26.8922    9.0735   29.6300 H   0  0  0  0  0  0  0  0  0  0  0  0
  -28.6854   12.3739   31.7412 H   0  0  0  0  0  0  0  0  0  0  0  0
  -28.1720   11.2730   33.8987 H   0  0  0  0  0  0  0  0  0  0  0  0
  -29.8829   12.5758   29.8582 H   0  0  0  0  0  0  0  0  0  0  0  0
  -30.4947   13.6431   25.4879 H   0  0  0  0  0  0  0  0  0  0  0  0
  -31.6090   14.7952   26.1785 H   0  0  0  0  0  0  0  0  0  0  0  0
  -28.5742   15.2080   25.9409 H   0  0  0  0  0  0  0  0  0  0  0  0
  -31.4206   18.8899   23.1225 H   0  0  0  0  0  0  0  0  0  0  0  0
  -31.0094   17.8846   25.3523 H   0  0  0  0  0  0  0  0  0  0  0  0
  -28.7844   14.6863   23.4966 H   0  0  0  0  0  0  0  0  0  0  0  0
  -29.7412   15.8916   27.7846 H   0  0  0  0  0  0  0  0  0  0  0  0
  -26.7895   11.6668   26.2654 H   0  0  0  0  0  0  0  0  0  0  0  0
  -30.5158   17.8004   21.0740 H   0  0  0  0  0  0  0  0  0  0  0  0
  -29.1982   15.6973   21.2654 H   0  0  0  0  0  0  0  0  0  0  0  0
  -31.1348   13.9025   28.2334 H   0  0  0  0  0  0  0  0  0  0  0  0
  -26.2901    7.7330   31.7786 F   0  0  0  0  0  0  0  0  0  0  0  0
  -27.0519    8.8700   34.1655 O   0  0  0  0  0  0  0  0  0  0  0  0
  -27.5488    9.7127   35.3025 C   0  0  0  0  0  0  0  0  0  0  0  0
  -27.3125    9.0616   36.4961 F   0  0  0  0  0  0  0  0  0  0  0  0
  -26.8878   10.9241   35.3013 F   0  0  0  0  0  0  0  0  0  0  0  0
  -28.9041    9.9288   35.1577 F   0  0  0  0  0  0  0  0  0  0  0  0
  1  2  2  0
  1  3  1  0
  1  7  1  0
  2  4  1  0
  2 23  1  0
  3  5  2  0
  3 24  1  0
  4  6  2  0
  4 38  1  0
  5  6  1  0
  5 25  1  0
  6 39  1  0
  7  8  2  0
  7 21  1  0
  8 15  1  0
  8 26  1  0
  9 10  1  0
  9 22  1  0
  9 27  1  0
  9 28  1  0
 10 14  1  0
 10 19  1  0
 10 29  1  6
 11 12  2  0
 11 17  1  0
 11 30  1  0
 12 19  1  0
 12 31  1  0
 13 18  1  0
 13 19  2  0
 13 32  1  0
 14 33  1  0
 15 20  2  0
 15 22  1  0
 16 20  1  0
 16 21  2  0
 16 34  1  0
 17 18  2  0
 17 35  1  0
 18 36  1  0
 22 37  1  0
 39 40  1  0
 40 41  1  0
 40 42  1  0
 40 43  1  0
M  END
>  <r_exp_dg>  (14) 
-10.6737

>  <experimental dG reference units>  (14) 
kcal/mol

>  <experimental dG reference field>  (14) 
r_exp_dg

>  <kJ/mol experimental dG>  (14) 
-44.6587608

>  <kcal/mol experimental dG>  (14) 
-10.6737

>  <AmberAM1BCCCache>  (14) 
gASVjAMAAAAAAABdlCiMFm51bXB5Ll9jb3JlLm11bHRpYXJyYXmUjAZzY2FsYXKUk5SMBW51bXB5lIwFZHR5cGWUk5SMAmY4lImIh5RSlChLA4wBPJROTk5K/////0r/////SwB0lGJDCHeknc14oPW/lIaUUpRoA2gJQwjAXEuet3z4v5SGlFKUaANoCUMIOrRV8Yn/9L+UhpRSlGgDaAlDCFQG8plzsvo/lIaUUpRoA2gJQwgirQ9u9Uf1v5SGlFKUaANoCUMITcS1mdSF4z+UhpRSlGgDaAlDCBHp0IMc/RdAlIaUUpRoA2gJQwi2bzzEJHATwJSGlFKUaANoCUMII5yApvR/A0CUhpRSlGgDaAlDCM+wvdgZogBAlIaUUpRoA2gJQwixYDnne1T4v5SGlFKUaANoCUMIraMHv4So9b+UhpRSlGgDaAlDCK2jB7+EqPW/lIaUUpRoA2gJQwgJUfS9e9QcwJSGlFKUaANoCUMIxD2ER5HXH0CUhpRSlGgDaAlDCGMT4epxfR9AlIaUUpRoA2gJQwgvj8tDu3n2v5SGlFKUaANoCUMIsWA553tU+L+UhpRSlGgDaAlDCD4G2BA15fm/lIaUUpRoA2gJQwjz+3BfWrkhwJSGlFKUaANoCUMINcxGDGQTIcCUhpRSlGgDaAlDCMFXj1SnrSPAlIaUUpRoA2gJQwhZjH/poAsAQJSGlFKUaANoCUMII2XVWbsK/T+UhpRSlGgDaAlDCHdCDdjIbP4/lIaUUpRoA2gJQwiQY6k80xr9P5SGlFKUaANoCUMI+WM47ylo6T+UhpRSlGgDaAlDCPljOO8paOk/lIaUUpRoA2gJQwg35VBHg0DkP5SGlFKUaANoCUMIQLodgbGl+T+UhpRSlGgDaAlDCFenDSPQZvo/lIaUUpRoA2gJQwhXpw0j0Gb6P5SGlFKUaANoCUMI7iXwneCEE0CUhpRSlGgDaAlDCO6nnYyCp+Q/lIaUUpRoA2gJQwj7vqHYaXX5P5SGlFKUaANoCUMIQLodgbGl+T+UhpRSlGgDaAlDCBBG9TybRxRAlIaUUpRoA2gJQwjhAVYnNPz1v5SGlFKUaANoCUMILmO4afDfEMCUhpRSlGgDaAlDCGDJLnXYVCNAlIaUUpRoA2gJQwg1Bt92mSIEwJSGlFKUaANoCUMINQbfdpkiBMCUhpRSlGgDaAlDCDUG33aZIgTAlIaUUpRlLg==

$$$$
24
     RDKit          3D

 49 51  0  0  1  0  0  0  0  0999 V2000
  -27.8196   10.8206   30.5136 C   0  0  0  0  0  0  0  0  0  0  0  0
  -27.1695    9.5648   30.5496 C   0  0  0  0  0  0  0  0  0  0  0  0
  -28.1862   11.4154   31.7424 C   0  0  0  0  0  0  0  0  0  0  0  0
  -26.9042    8.9161   31.7716 C   0  0  0  0  0  0  0  0  0  0  0  0
  -27.9122   10.7854   32.9706 C   0  0  0  0  0  0  0  0  0  0  0  0
  -27.2855    9.5135   32.9857 C   0  0  0  0  0  0  0  0  0  0  0  0
  -28.1064   11.4981   29.2305 C   0  0  0  0  0  0  0  0  0  0  0  0
  -29.1902   12.3759   29.0563 C   0  0  0  0  0  0  0  0  0  0  0  0
  -30.5843   14.4272   26.2421 C   0  0  0  0  0  0  0  0  0  0  0  0
  -29.6030   15.5711   25.9398 C   0  0  2  0  0  0  0  0  0  0  0  0
  -30.8509   17.9756   23.2021 C   0  0  0  0  0  0  0  0  0  0  0  0
  -30.6168   17.4031   24.4681 C   0  0  0  0  0  0  0  0  0  0  0  0
  -29.3586   15.5986   23.4191 C   0  0  0  0  0  0  0  0  0  0  0  0
  -29.7458   16.4586   27.0261 O   0  0  0  0  0  0  0  0  0  0  0  0
  -29.3233   12.9701   27.8032 C   0  0  0  0  0  0  0  0  0  0  0  0
  -27.4802   11.8703   27.0699 C   0  0  0  0  0  0  0  0  0  0  0  0
  -30.3387   17.3595   22.0442 C   0  0  0  0  0  0  0  0  0  0  0  0
  -29.5929   16.1701   22.1529 C   0  0  0  0  0  0  0  0  0  0  0  0
  -29.8671   16.2110   24.5846 C   0  0  0  0  0  0  0  0  0  0  0  0
  -28.4623   12.7237   26.8119 N   0  0  0  0  0  0  0  0  0  0  0  0
  -27.2608   11.2462   28.2173 N   0  0  0  0  0  0  0  0  0  0  0  0
  -30.3676   13.8720   27.5798 N   0  0  0  0  0  0  0  0  0  0  0  0
  -26.8922    9.0735   29.6300 H   0  0  0  0  0  0  0  0  0  0  0  0
  -28.6854   12.3739   31.7412 H   0  0  0  0  0  0  0  0  0  0  0  0
  -28.1720   11.2730   33.8987 H   0  0  0  0  0  0  0  0  0  0  0  0
  -29.8829   12.5758   29.8582 H   0  0  0  0  0  0  0  0  0  0  0  0
  -30.4947   13.6431   25.4879 H   0  0  0  0  0  0  0  0  0  0  0  0
  -31.6090   14.7952   26.1785 H   0  0  0  0  0  0  0  0  0  0  0  0
  -28.5742   15.2080   25.9409 H   0  0  0  0  0  0  0  0  0  0  0  0
  -31.4206   18.8899   23.1225 H   0  0  0  0  0  0  0  0  0  0  0  0
  -31.0094   17.8846   25.3523 H   0  0  0  0  0  0  0  0  0  0  0  0
  -28.7844   14.6863   23.4966 H   0  0  0  0  0  0  0  0  0  0  0  0
  -29.7412   15.8916   27.7846 H   0  0  0  0  0  0  0  0  0  0  0  0
  -26.7895   11.6668   26.2654 H   0  0  0  0  0  0  0  0  0  0  0  0
  -30.5158   17.8004   21.0740 H   0  0  0  0  0  0  0  0  0  0  0  0
  -29.1982   15.6973   21.2654 H   0  0  0  0  0  0  0  0  0  0  0  0
  -31.1348   13.9025   28.2334 H   0  0  0  0  0  0  0  0  0  0  0  0
  -26.1948    7.5492   31.7797 C   0  0  0  0  0  0  0  0  0  0  0  0
  -27.0519    8.8700   34.1655 O   0  0  0  0  0  0  0  0  0  0  0  0
  -27.5488    9.7127   35.3025 C   0  0  0  0  0  0  0  0  0  0  0  0
  -27.3621    9.1984   36.2452 H   0  0  0  0  0  0  0  0  0  0  0  0
  -27.0267   10.6695   35.3015 H   0  0  0  0  0  0  0  0  0  0  0  0
  -29.0612    9.9539   35.1409 C   0  0  0  0  0  0  0  0  0  0  0  0
  -26.0456    7.1153   33.0812 F   0  0  0  0  0  0  0  0  0  0  0  0
  -26.9495    6.6344   31.0741 F   0  0  0  0  0  0  0  0  0  0  0  0
  -24.9526    7.6714   31.1910 F   0  0  0  0  0  0  0  0  0  0  0  0
  -29.4223   10.5663   35.9671 H   0  0  0  0  0  0  0  0  0  0  0  0
  -29.2489   10.4687   34.1986 H   0  0  0  0  0  0  0  0  0  0  0  0
  -29.5844    8.9976   35.1424 H   0  0  0  0  0  0  0  0  0  0  0  0
  1  2  2  0
  1  3  1  0
  1  7  1  0
  2  4  1  0
  2 23  1  0
  3  5  2  0
  3 24  1  0
  4  6  2  0
  4 38  1  0
  5  6  1  0
  5 25  1  0
  6 39  1  0
  7  8  2  0
  7 21  1  0
  8 15  1  0
  8 26  1  0
  9 10  1  0
  9 22  1  0
  9 27  1  0
  9 28  1  0
 10 14  1  0
 10 19  1  0
 10 29  1  6
 11 12  2  0
 11 17  1  0
 11 30  1  0
 12 19  1  0
 12 31  1  0
 13 18  1  0
 13 19  2  0
 13 32  1  0
 14 33  1  0
 15 20  2  0
 15 22  1  0
 16 20  1  0
 16 21  2  0
 16 34  1  0
 17 18  2  0
 17 35  1  0
 18 36  1  0
 22 37  1  0
 38 44  1  0
 38 45  1  0
 38 46  1  0
 39 40  1  0
 40 41  1  0
 40 42  1  0
 40 43  1  0
 43 47  1  0
 43 48  1  0
 43 49  1  0
M  END
>  <r_exp_dg>  (15) 
-11.6273

>  <experimental dG reference units>  (15) 
kcal/mol

>  <experimental dG reference field>  (15) 
r_exp_dg

>  <kJ/mol experimental dG>  (15) 
-48.6486232

>  <kcal/mol experimental dG>  (15) 
-11.6273

>  <AmberAM1BCCCache>  (15) 
gASV/gMAAAAAAABdlCiMFm51bXB5Ll9jb3JlLm11bHRpYXJyYXmUjAZzY2FsYXKUk5SMBW51bXB5lIwFZHR5cGWUk5SMAmY4lImIh5RSlChLA4wBPJROTk5K/////0r/////SwB0lGJDCBdcMpC2jwLAlIaUUpRoA2gJQwjcg+OJHia2v5SGlFKUaANoCUMIgvyq7Mia4b+UhpRSlGgDaAlDCDOZ5JNbNQTAlIaUUpRoA2gJQwjOH180SPcEwJSGlFKUaANoCUMIcdRmnWZNAkCUhpRSlGgDaAlDCEYxOCEsshhAlIaUUpRoA2gJQwjmDcpMmcATwJSGlFKUaANoCUMIA1Ctcfp/A0CUhpRSlGgDaAlDCLBk6qMfogBAlIaUUpRoA2gJQwjw+N9QcFT4v5SGlFKUaANoCUMIIzsYGoWw9b+UhpRSlGgDaAlDCCM7GBqFsPW/lIaUUpRoA2gJQwiz9hLRftgcwJSGlFKUaANoCUMIQxqCXG29H0CUhpRSlGgDaAlDCFRtd9B0fR9AlIaUUpRoA2gJQwh+I4Rk66H2v5SGlFKUaANoCUMI8PjfUHBU+L+UhpRSlGgDaAlDCDijAtLhtPm/lIaUUpRoA2gJQwgcjQFKdcwhwJSGlFKUaANoCUMIqJ1PfHojIcCUhpRSlGgDaAlDCK5q8V+nriPAlIaUUpRoA2gJQwgpN+8MMGgAQJSGlFKUaANoCUMIoQVfCmvH+j+UhpRSlGgDaAlDCNXqchoB2fs/lIaUUpRoA2gJQwgT27r273n8P5SGlFKUaANoCUMIyDmbkOEn6T+UhpRSlGgDaAlDCMg5m5DhJ+k/lIaUUpRoA2gJQwi4tAN0mkDkP5SGlFKUaANoCUMIAiJ3F72l+T+UhpRSlGgDaAlDCHURKeW3Tvo/lIaUUpRoA2gJQwh1ESnlt076P5SGlFKUaANoCUMIDIFnmdF4E0CUhpRSlGgDaAlDCOSAWGgKR+Q/lIaUUpRoA2gJQwi8JvtudXX5P5SGlFKUaANoCUMIAiJ3F72l+T+UhpRSlGgDaAlDCPCjeWtiHxRAlIaUUpRoA2gJQwg4+jBQ1Z8gQJSGlFKUaANoCUMIonLA+ynqDcCUhpRSlGgDaAlDCJynEVkXZ/g/lIaUUpRoA2gJQwhjox8zofHkP5SGlFKUaANoCUMIY6MfM6Hx5D+UhpRSlGgDaAlDCG6uN1WWN/e/lIaUUpRoA2gJQwglQmrkBTsGwJSGlFKUaANoCUMIJUJq5AU7BsCUhpRSlGgDaAlDCCVCauQFOwbAlIaUUpRoA2gJQwhmcm1gE+DjP5SGlFKUaANoCUMIZnJtYBPg4z+UhpRSlGgDaAlDCGZybWAT4OM/lIaUUpRlLg==

$$$$
25
     RDKit          3D

 46 48  0  0  1  0  0  0  0  0999 V2000
  -27.8237   10.8125   30.5041 C   0  0  0  0  0  0  0  0  0  0  0  0
  -28.1941   11.4126   31.7194 C   0  0  0  0  0  0  0  0  0  0  0  0
  -27.1715    9.5571   30.5460 C   0  0  0  0  0  0  0  0  0  0  0  0
  -27.9090   10.8060   32.9383 C   0  0  0  0  0  0  0  0  0  0  0  0
  -26.9124    8.9105   31.7738 C   0  0  0  0  0  0  0  0  0  0  0  0
  -27.3018    9.5212   32.9955 C   0  0  0  0  0  0  0  0  0  0  0  0
  -28.1090   11.4915   29.2285 C   0  0  0  0  0  0  0  0  0  0  0  0
  -29.1965   12.3732   29.0593 C   0  0  0  0  0  0  0  0  0  0  0  0
  -30.5899   14.4212   26.2367 C   0  0  0  0  0  0  0  0  0  0  0  0
  -29.6118   15.5626   25.9369 C   0  0  2  0  0  0  0  0  0  0  0  0
  -30.8261   17.9996   23.2018 C   0  0  0  0  0  0  0  0  0  0  0  0
  -30.6210   17.4059   24.4667 C   0  0  0  0  0  0  0  0  0  0  0  0
  -29.3601   15.5919   23.4139 C   0  0  0  0  0  0  0  0  0  0  0  0
  -29.7863   16.4657   26.9993 O   0  0  0  0  0  0  0  0  0  0  0  0
  -29.3331   12.9674   27.7955 C   0  0  0  0  0  0  0  0  0  0  0  0
  -27.4851   11.8558   27.0576 C   0  0  0  0  0  0  0  0  0  0  0  0
  -30.3234   17.3679   22.0384 C   0  0  0  0  0  0  0  0  0  0  0  0
  -29.5837   16.1694   22.1456 C   0  0  0  0  0  0  0  0  0  0  0  0
  -29.8850   16.1997   24.5791 C   0  0  0  0  0  0  0  0  0  0  0  0
  -28.4760   12.7003   26.7869 N   0  0  0  0  0  0  0  0  0  0  0  0
  -27.2554   11.2394   28.2129 N   0  0  0  0  0  0  0  0  0  0  0  0
  -30.3814   13.8635   27.5729 N   0  0  0  0  0  0  0  0  0  0  0  0
  -28.6731   12.3794   31.7469 H   0  0  0  0  0  0  0  0  0  0  0  0
  -26.8696    9.0819   29.6259 H   0  0  0  0  0  0  0  0  0  0  0  0
  -26.4086    7.9552   31.7496 H   0  0  0  0  0  0  0  0  0  0  0  0
  -29.8956   12.5779   29.8544 H   0  0  0  0  0  0  0  0  0  0  0  0
  -31.6139   14.7829   26.1527 H   0  0  0  0  0  0  0  0  0  0  0  0
  -30.4651   13.6295   25.5006 H   0  0  0  0  0  0  0  0  0  0  0  0
  -28.5880   15.1816   25.9542 H   0  0  0  0  0  0  0  0  0  0  0  0
  -31.4231   18.8936   23.1196 H   0  0  0  0  0  0  0  0  0  0  0  0
  -31.0199   17.8811   25.3506 H   0  0  0  0  0  0  0  0  0  0  0  0
  -28.7861   14.6811   23.4922 H   0  0  0  0  0  0  0  0  0  0  0  0
  -29.3825   16.0662   27.7847 H   0  0  0  0  0  0  0  0  0  0  0  0
  -26.7900   11.6544   26.2618 H   0  0  0  0  0  0  0  0  0  0  0  0
  -30.5174   17.8005   21.0700 H   0  0  0  0  0  0  0  0  0  0  0  0
  -29.1975   15.6931   21.2600 H   0  0  0  0  0  0  0  0  0  0  0  0
  -30.7260   14.3938   28.3653 H   0  0  0  0  0  0  0  0  0  0  0  0
  -28.2024   11.8531   34.2635 Cl  0  0  0  0  0  0  0  0  0  0  0  0
  -27.0591    8.8944   34.2010 O   0  0  0  0  0  0  0  0  0  0  0  0
  -28.2022    8.4042   34.9113 C   0  0  0  0  0  0  0  0  0  0  0  0
  -29.0060    8.1549   34.2226 H   0  0  0  0  0  0  0  0  0  0  0  0
  -27.9293    7.5031   35.4565 H   0  0  0  0  0  0  0  0  0  0  0  0
  -28.6856    9.3999   35.9584 C   0  0  0  0  0  0  0  0  0  0  0  0
  -29.5582    9.0948   36.4942 H   0  0  0  0  0  0  0  0  0  0  0  0
  -27.8988    9.7422   36.6222 H   0  0  0  0  0  0  0  0  0  0  0  0
  -29.1269   10.2320   35.5102 H   0  0  0  0  0  0  0  0  0  0  0  0
  1  2  2  0
  1  3  1  0
  1  7  1  0
  2  4  1  0
  2 23  1  0
  3  5  2  0
  3 24  1  0
  4  6  2  0
  4 38  1  0
  5  6  1  0
  5 25  1  0
  6 39  1  0
  7  8  2  0
  7 21  1  0
  8 15  1  0
  8 26  1  0
  9 10  1  0
  9 22  1  0
  9 27  1  0
  9 28  1  0
 10 14  1  0
 10 19  1  0
 10 29  1  6
 11 12  2  0
 11 17  1  0
 11 30  1  0
 12 19  1  0
 12 31  1  0
 13 18  1  0
 13 19  2  0
 13 32  1  0
 14 33  1  0
 15 20  2  0
 15 22  1  0
 16 20  1  0
 16 21  2  0
 16 34  1  0
 17 18  2  0
 17 35  1  0
 18 36  1  0
 22 37  1  0
 39 40  1  0
 40 41  1  0
 40 42  1  0
 40 43  1  0
 43 44  1  0
 43 45  1  0
 43 46  1  0
M  END
>  <r_exp_dg>  (16) 
-12.038

>  <experimental dG reference units>  (16) 
kcal/mol

>  <experimental dG reference field>  (16) 
r_exp_dg

>  <kJ/mol experimental dG>  (16) 
-50.366992

>  <kcal/mol experimental dG>  (16) 
-12.038

>  <AmberAM1BCCCache>  (16) 
gASVxQMAAAAAAABdlCiMFm51bXB5Ll9jb3JlLm11bHRpYXJyYXmUjAZzY2FsYXKUk5SMBW51bXB5lIwFZHR5cGWUk5SMAmY4lImIh5RSlChLA4wBPJROTk5K/////0r/////SwB0lGJDCJwwhilDXwHAlIaUUpRoA2gJQwhe6iCREQ7rv5SGlFKUaANoCUMICYRjrfjs5L+UhpRSlGgDaAlDCMHc11dOCNG/lIaUUpRoA2gJQwhS9LLN1MYDwJSGlFKUaANoCUMIwgArm368/D+UhpRSlGgDaAlDCNLTk8GjxxhAlIaUUpRoA2gJQwhyK0EuIKoTwJSGlFKUaANoCUMI+R18VmNQA0CUhpRSlGgDaAlDCIKuJTzHnABAlIaUUpRoA2gJQwhLZWkgIV/4v5SGlFKUaANoCUMIzR9rW6oJ9r+UhpRSlGgDaAlDCM0fa1uqCfa/lIaUUpRoA2gJQwgtmbMNu48cwJSGlFKUaANoCUMIPoHpzqGlH0CUhpRSlGgDaAlDCOVUz02gXx9AlIaUUpRoA2gJQwhNjGry0dD2v5SGlFKUaANoCUMIS2VpICFf+L+UhpRSlGgDaAlDCKoJJzTs+/m/lIaUUpRoA2gJQwjz+mrpxsohwJSGlFKUaANoCUMIUQrYBd4tIcCUhpRSlGgDaAlDCDqY4nn9ryPAlIaUUpRoA2gJQwhxWV+dgUj9P5SGlFKUaANoCUMIXGxv+2KH/D+UhpRSlGgDaAlDCHSNC2BtNfs/lIaUUpRoA2gJQwgVZEhi4Nv8P5SGlFKUaANoCUMIy1hhWP1m6T+UhpRSlGgDaAlDCMtYYVj9Zuk/lIaUUpRoA2gJQwgE3PDUOCvkP5SGlFKUaANoCUMIbTe/aPGI+T+UhpRSlGgDaAlDCDGfOqhggPo/lIaUUpRoA2gJQwgxnzqoYID6P5SGlFKUaANoCUMIcGfeAA9nE0CUhpRSlGgDaAlDCFC6vxiWeOM/lIaUUpRoA2gJQwiPu1K1sl75P5SGlFKUaANoCUMIbTe/aPGI+T+UhpRSlGgDaAlDCOsK4d2WBxRAlIaUUpRoA2gJQwiOp1NwZK3rv5SGlFKUaANoCUMIX6vsklvVDcCUhpRSlGgDaAlDCPs/DOEeLPg/lIaUUpRoA2gJQwhK12x9gFvkP5SGlFKUaANoCUMIStdsfYBb5D+UhpRSlGgDaAlDCIMSmovElve/lIaUUpRoA2gJQwip84SK0jnjP5SGlFKUaANoCUMIqfOEitI54z+UhpRSlGgDaAlDCKnzhIrSOeM/lIaUUpRlLg==

$$$$
26
     RDKit          3D

 46 48  0  0  1  0  0  0  0  0999 V2000
  -27.8226   10.8137   30.5032 C   0  0  0  0  0  0  0  0  0  0  0  0
  -28.1920   11.4132   31.7161 C   0  0  0  0  0  0  0  0  0  0  0  0
  -27.1709    9.5575   30.5453 C   0  0  0  0  0  0  0  0  0  0  0  0
  -27.9082   10.7934   32.9219 C   0  0  0  0  0  0  0  0  0  0  0  0
  -26.9091    8.9098   31.7717 C   0  0  0  0  0  0  0  0  0  0  0  0
  -27.2971    9.5177   32.9911 C   0  0  0  0  0  0  0  0  0  0  0  0
  -28.1088   11.4920   29.2287 C   0  0  0  0  0  0  0  0  0  0  0  0
  -29.1963   12.3733   29.0595 C   0  0  0  0  0  0  0  0  0  0  0  0
  -30.5893   14.4218   26.2370 C   0  0  0  0  0  0  0  0  0  0  0  0
  -29.6111   15.5631   25.9368 C   0  0  2  0  0  0  0  0  0  0  0  0
  -30.8300   17.9967   23.2018 C   0  0  0  0  0  0  0  0  0  0  0  0
  -30.6212   17.4056   24.4669 C   0  0  0  0  0  0  0  0  0  0  0  0
  -29.3599   15.5923   23.4143 C   0  0  0  0  0  0  0  0  0  0  0  0
  -29.7857   16.4656   26.9998 O   0  0  0  0  0  0  0  0  0  0  0  0
  -29.3323   12.9683   27.7966 C   0  0  0  0  0  0  0  0  0  0  0  0
  -27.4849   11.8576   27.0589 C   0  0  0  0  0  0  0  0  0  0  0  0
  -30.3262   17.3662   22.0386 C   0  0  0  0  0  0  0  0  0  0  0  0
  -29.5850   16.1690   22.1461 C   0  0  0  0  0  0  0  0  0  0  0  0
  -29.8850   16.2004   24.5794 C   0  0  0  0  0  0  0  0  0  0  0  0
  -28.4737   12.7041   26.7894 N   0  0  0  0  0  0  0  0  0  0  0  0
  -27.2556   11.2397   28.2133 N   0  0  0  0  0  0  0  0  0  0  0  0
  -30.3799   13.8647   27.5735 N   0  0  0  0  0  0  0  0  0  0  0  0
  -28.6745   12.3784   31.7529 H   0  0  0  0  0  0  0  0  0  0  0  0
  -26.8698    9.0824   29.6259 H   0  0  0  0  0  0  0  0  0  0  0  0
  -26.4075    7.9548   31.7485 H   0  0  0  0  0  0  0  0  0  0  0  0
  -29.8953   12.5775   29.8541 H   0  0  0  0  0  0  0  0  0  0  0  0
  -31.6132   14.7834   26.1522 H   0  0  0  0  0  0  0  0  0  0  0  0
  -30.4639   13.6296   25.5020 H   0  0  0  0  0  0  0  0  0  0  0  0
  -28.5880   15.1798   25.9548 H   0  0  0  0  0  0  0  0  0  0  0  0
  -31.4238   18.8923   23.1197 H   0  0  0  0  0  0  0  0  0  0  0  0
  -31.0192   17.8808   25.3508 H   0  0  0  0  0  0  0  0  0  0  0  0
  -28.7861   14.6816   23.4922 H   0  0  0  0  0  0  0  0  0  0  0  0
  -29.3806   16.0656   27.7829 H   0  0  0  0  0  0  0  0  0  0  0  0
  -26.7905   11.6563   26.2624 H   0  0  0  0  0  0  0  0  0  0  0  0
  -30.5178   17.8002   21.0706 H   0  0  0  0  0  0  0  0  0  0  0  0
  -29.1981   15.6935   21.2608 H   0  0  0  0  0  0  0  0  0  0  0  0
  -30.7267   14.3934   28.3660 H   0  0  0  0  0  0  0  0  0  0  0  0
  -28.1704   11.5709   33.9594 F   0  0  0  0  0  0  0  0  0  0  0  0
  -27.0680    8.8952   34.2019 O   0  0  0  0  0  0  0  0  0  0  0  0
  -28.2167    8.6270   35.0136 C   0  0  0  0  0  0  0  0  0  0  0  0
  -29.0844    8.4260   34.3894 H   0  0  0  0  0  0  0  0  0  0  0  0
  -28.0281    7.7395   35.6200 H   0  0  0  0  0  0  0  0  0  0  0  0
  -28.5003    9.7716   35.9841 C   0  0  0  0  0  0  0  0  0  0  0  0
  -29.3743    9.6142   36.5819 H   0  0  0  0  0  0  0  0  0  0  0  0
  -27.6420   10.0323   36.5857 H   0  0  0  0  0  0  0  0  0  0  0  0
  -28.8074   10.6534   35.5272 H   0  0  0  0  0  0  0  0  0  0  0  0
  1  2  2  0
  1  3  1  0
  1  7  1  0
  2  4  1  0
  2 23  1  0
  3  5  2  0
  3 24  1  0
  4  6  2  0
  4 38  1  0
  5  6  1  0
  5 25  1  0
  6 39  1  0
  7  8  2  0
  7 21  1  0
  8 15  1  0
  8 26  1  0
  9 10  1  0
  9 22  1  0
  9 27  1  0
  9 28  1  0
 10 14  1  0
 10 19  1  0
 10 29  1  6
 11 12  2  0
 11 17  1  0
 11 30  1  0
 12 19  1  0
 12 31  1  0
 13 18  1  0
 13 19  2  0
 13 32  1  0
 14 33  1  0
 15 20  2  0
 15 22  1  0
 16 20  1  0
 16 21  2  0
 16 34  1  0
 17 18  2  0
 17 35  1  0
 18 36  1  0
 22 37  1  0
 39 40  1  0
 40 41  1  0
 40 42  1  0
 40 43  1  0
 43 44  1  0
 43 45  1  0
 43 46  1  0
M  END
>  <r_exp_dg>  (17) 
-10.6737

>  <experimental dG reference units>  (17) 
kcal/mol

>  <experimental dG reference field>  (17) 
r_exp_dg

>  <kJ/mol experimental dG>  (17) 
-44.6587608

>  <kcal/mol experimental dG>  (17) 
-10.6737

>  <AmberAM1BCCCache>  (17) 
gASVxQMAAAAAAABdlCiMFm51bXB5Ll9jb3JlLm11bHRpYXJyYXmUjAZzY2FsYXKUk5SMBW51bXB5lIwFZHR5cGWUk5SMAmY4lImIh5RSlChLA4wBPJROTk5K/////0r/////SwB0lGJDCDC3NSdLZf+/lIaUUpRoA2gJQwicsKkvh3L1v5SGlFKUaANoCUMI4fesxfus6r+UhpRSlGgDaAlDCLvrfa4YPvE/lIaUUpRoA2gJQwhlmWLKkFYCwJSGlFKUaANoCUMImcCN3EcB9T+UhpRSlGgDaAlDCK5VpbyQrxhAlIaUUpRoA2gJQwhv7Ur6+JoTwJSGlFKUaANoCUMImBpZyahoA0CUhpRSlGgDaAlDCEQvlvvNigBAlIaUUpRoA2gJQwjp5xvu1Fj4v5SGlFKUaANoCUMIhaljrPK69b+UhpRSlGgDaAlDCIWpY6zyuvW/lIaUUpRoA2gJQwio1Gdh9sIcwJSGlFKUaANoCUMIvAA5nrKlH0CUhpRSlGgDaAlDCLAUl6KsXB9AlIaUUpRoA2gJQwixkO7garj2v5SGlFKUaANoCUMI6ecb7tRY+L+UhpRSlGgDaAlDCIQXs9H1gvm/lIaUUpRoA2gJQwjD2o45Rc8hwJSGlFKUaANoCUMI3YqoI9EqIcCUhpRSlGgDaAlDCDh5599pqCPAlIaUUpRoA2gJQwjGTLQVZrX9P5SGlFKUaANoCUMIJGnMIriT/D+UhpRSlGgDaAlDCOCHplvmWfs/lIaUUpRoA2gJQwivX8RzR/T8P5SGlFKUaANoCUMIMl7lgfQG6T+UhpRSlGgDaAlDCDJe5YH0Buk/lIaUUpRoA2gJQwiX1aoj40PkP5SGlFKUaANoCUMIKrfOxhl3+T+UhpRSlGgDaAlDCIafOhGAaPo/lIaUUpRoA2gJQwiGnzoRgGj6P5SGlFKUaANoCUMIv+VMujFzE0CUhpRSlGgDaAlDCJ24/b74YOM/lIaUUpRoA2gJQwi2unEI5FL5P5SGlFKUaANoCUMIKrfOxhl3+T+UhpRSlGgDaAlDCFfI5gbHHBRAlIaUUpRoA2gJQwgF2rXGVuH3v5SGlFKUaANoCUMI8K/wNQSxDcCUhpRSlGgDaAlDCA1FkKH24/c/lIaUUpRoA2gJQwh9p2POnRrmP5SGlFKUaANoCUMIfadjzp0a5j+UhpRSlGgDaAlDCEPy3tOI9Pi/lIaUUpRoA2gJQwg2ixqW0+HiP5SGlFKUaANoCUMINosaltPh4j+UhpRSlGgDaAlDCDaLGpbT4eI/lIaUUpRlLg==

$$$$
27
     RDKit          3D

 46 48  0  0  1  0  0  0  0  0999 V2000
  -27.8196   10.8206   30.5136 C   0  0  0  0  0  0  0  0  0  0  0  0
  -27.1695    9.5648   30.5496 C   0  0  0  0  0  0  0  0  0  0  0  0
  -28.1862   11.4154   31.7424 C   0  0  0  0  0  0  0  0  0  0  0  0
  -26.9042    8.9161   31.7716 C   0  0  0  0  0  0  0  0  0  0  0  0
  -27.9122   10.7854   32.9706 C   0  0  0  0  0  0  0  0  0  0  0  0
  -27.2855    9.5135   32.9857 C   0  0  0  0  0  0  0  0  0  0  0  0
  -28.1064   11.4981   29.2305 C   0  0  0  0  0  0  0  0  0  0  0  0
  -29.1902   12.3759   29.0563 C   0  0  0  0  0  0  0  0  0  0  0  0
  -30.5843   14.4272   26.2421 C   0  0  0  0  0  0  0  0  0  0  0  0
  -29.6030   15.5711   25.9398 C   0  0  2  0  0  0  0  0  0  0  0  0
  -30.8509   17.9756   23.2021 C   0  0  0  0  0  0  0  0  0  0  0  0
  -30.6168   17.4031   24.4681 C   0  0  0  0  0  0  0  0  0  0  0  0
  -29.3586   15.5986   23.4191 C   0  0  0  0  0  0  0  0  0  0  0  0
  -29.7458   16.4586   27.0261 O   0  0  0  0  0  0  0  0  0  0  0  0
  -29.3233   12.9701   27.8032 C   0  0  0  0  0  0  0  0  0  0  0  0
  -27.4802   11.8703   27.0699 C   0  0  0  0  0  0  0  0  0  0  0  0
  -30.3387   17.3595   22.0442 C   0  0  0  0  0  0  0  0  0  0  0  0
  -29.5929   16.1701   22.1529 C   0  0  0  0  0  0  0  0  0  0  0  0
  -29.8671   16.2110   24.5846 C   0  0  0  0  0  0  0  0  0  0  0  0
  -28.4623   12.7237   26.8119 N   0  0  0  0  0  0  0  0  0  0  0  0
  -27.2608   11.2462   28.2173 N   0  0  0  0  0  0  0  0  0  0  0  0
  -30.3676   13.8720   27.5798 N   0  0  0  0  0  0  0  0  0  0  0  0
  -26.8922    9.0735   29.6300 H   0  0  0  0  0  0  0  0  0  0  0  0
  -28.6854   12.3739   31.7412 H   0  0  0  0  0  0  0  0  0  0  0  0
  -28.1720   11.2730   33.8987 H   0  0  0  0  0  0  0  0  0  0  0  0
  -29.8829   12.5758   29.8582 H   0  0  0  0  0  0  0  0  0  0  0  0
  -30.4947   13.6431   25.4879 H   0  0  0  0  0  0  0  0  0  0  0  0
  -31.6090   14.7952   26.1785 H   0  0  0  0  0  0  0  0  0  0  0  0
  -28.5742   15.2080   25.9409 H   0  0  0  0  0  0  0  0  0  0  0  0
  -31.4206   18.8899   23.1225 H   0  0  0  0  0  0  0  0  0  0  0  0
  -31.0094   17.8846   25.3523 H   0  0  0  0  0  0  0  0  0  0  0  0
  -28.7844   14.6863   23.4966 H   0  0  0  0  0  0  0  0  0  0  0  0
  -29.7412   15.8916   27.7846 H   0  0  0  0  0  0  0  0  0  0  0  0
  -26.7895   11.6668   26.2654 H   0  0  0  0  0  0  0  0  0  0  0  0
  -30.5158   17.8004   21.0740 H   0  0  0  0  0  0  0  0  0  0  0  0
  -29.1982   15.6973   21.2654 H   0  0  0  0  0  0  0  0  0  0  0  0
  -31.1348   13.9025   28.2334 H   0  0  0  0  0  0  0  0  0  0  0  0
  -26.2901    7.7330   31.7786 F   0  0  0  0  0  0  0  0  0  0  0  0
  -27.0519    8.8700   34.1655 O   0  0  0  0  0  0  0  0  0  0  0  0
  -27.5488    9.7127   35.3025 C   0  0  0  0  0  0  0  0  0  0  0  0
  -27.3621    9.1984   36.2452 H   0  0  0  0  0  0  0  0  0  0  0  0
  -27.0267   10.6695   35.3015 H   0  0  0  0  0  0  0  0  0  0  0  0
  -29.0612    9.9539   35.1409 C   0  0  0  0  0  0  0  0  0  0  0  0
  -29.5184   10.7292   36.1870 F   0  0  0  0  0  0  0  0  0  0  0  0
  -29.2989   10.6057   33.9480 F   0  0  0  0  0  0  0  0  0  0  0  0
  -29.7236    8.7432   35.1427 F   0  0  0  0  0  0  0  0  0  0  0  0
  1  2  2  0
  1  3  1  0
  1  7  1  0
  2  4  1  0
  2 23  1  0
  3  5  2  0
  3 24  1  0
  4  6  2  0
  4 38  1  0
  5  6  1  0
  5 25  1  0
  6 39  1  0
  7  8  2  0
  7 21  1  0
  8 15  1  0
  8 26  1  0
  9 10  1  0
  9 22  1  0
  9 27  1  0
  9 28  1  0
 10 14  1  0
 10 19  1  0
 10 29  1  6
 11 12  2  0
 11 17  1  0
 11 30  1  0
 12 19  1  0
 12 31  1  0
 13 18  1  0
 13 19  2  0
 13 32  1  0
 14 33  1  0
 15 20  2  0
 15 22  1  0
 16 20  1  0
 16 21  2  0
 16 34  1  0
 17 18  2  0
 17 35  1  0
 18 36  1  0
 22 37  1  0
 39 40  1  0
 40 41  1  0
 40 42  1  0
 40 43  1  0
 43 44  1  0
 43 45  1  0
 43 46  1  0
M  END
>  <r_exp_dg>  (18) 
-11.1877

>  <experimental dG reference units>  (18) 
kcal/mol

>  <experimental dG reference field>  (18) 
r_exp_dg

>  <kJ/mol experimental dG>  (18) 
-46.8093368

>  <kcal/mol experimental dG>  (18) 
-11.1877

>  <AmberAM1BCCCache>  (18) 
gASVxQMAAAAAAABdlCiMFm51bXB5Ll9jb3JlLm11bHRpYXJyYXmUjAZzY2FsYXKUk5SMBW51bXB5lIwFZHR5cGWUk5SMAmY4lImIh5RSlChLA4wBPJROTk5K/////0r/////SwB0lGJDCJrEFMLD2fq/lIaUUpRoA2gJQwi4GV3puXT3v5SGlFKUaANoCUMICehXY5t/7b+UhpRSlGgDaAlDCEjtwCi9MPU/lIaUUpRoA2gJQwg3WvoQEBj/v5SGlFKUaANoCUMIAHQxhIAi7j+UhpRSlGgDaAlDCNX40N4qSRhAlIaUUpRoA2gJQwgWVumyq4gTwJSGlFKUaANoCUMIDMvteCh7A0CUhpRSlGgDaAlDCFTf36NToQBAlIaUUpRoA2gJQwioA/VQCFb4v5SGlFKUaANoCUMI0kekPv+d9b+UhpRSlGgDaAlDCNJHpD7/nfW/lIaUUpRoA2gJQwiSOvnm0swcwJSGlFKUaANoCUMIalVgNCjTH0CUhpRSlGgDaAlDCKUqctAOfR9AlIaUUpRoA2gJQwg1Lplkg6P2v5SGlFKUaANoCUMIqAP1UAhW+L+UhpRSlGgDaAlDCCWtgcOFvvm/lIaUUpRoA2gJQwi777fhlL8hwJSGlFKUaANoCUMINz68bbkrIcCUhpRSlGgDaAlDCB/MxuHYrSPAlIaUUpRoA2gJQwg5pNXF9Dr+P5SGlFKUaANoCUMIh6qFOpX6/T+UhpRSlGgDaAlDCIveMf2A5/s/lIaUUpRoA2gJQwg8viunajH9P5SGlFKUaANoCUMIjiPbgb0s6T+UhpRSlGgDaAlDCI4j24G9LOk/lIaUUpRoA2gJQwhJn9lzaj3kP5SGlFKUaANoCUMISRdiFyWk+T+UhpRSlGgDaAlDCFgGyd0lUfo/lIaUUpRoA2gJQwhYBsndJVH6P5SGlFKUaANoCUMIMD2Bg32EE0CUhpRSlGgDaAlDCDBwsr+SE+Q/lIaUUpRoA2gJQwgEHOZu3XP5P5SGlFKUaANoCUMISRdiFyWk+T+UhpRSlGgDaAlDCOjddi0vQRRAlIaUUpRoA2gJQwj9jRPqGuf2v5SGlFKUaANoCUMI2Rt0k9Z8DMCUhpRSlGgDaAlDCHdYcehk6vA/lIaUUpRoA2gJQwhGfTh8lc7vP5SGlFKUaANoCUMIRn04fJXO7z+UhpRSlGgDaAlDCOLcTHIVfB1AlIaUUpRoA2gJQwj1QcPrCLMFwJSGlFKUaANoCUMI9UHD6wizBcCUhpRSlGgDaAlDCPVBw+sIswXAlIaUUpRlLg==

$$$$
28
     RDKit          3D

 44 46  0  0  1  0  0  0  0  0999 V2000
  -27.8196   10.8206   30.5136 C   0  0  0  0  0  0  0  0  0  0  0  0
  -28.1862   11.4154   31.7424 C   0  0  0  0  0  0  0  0  0  0  0  0
  -27.1695    9.5648   30.5496 C   0  0  0  0  0  0  0  0  0  0  0  0
  -27.9122   10.7854   32.9706 C   0  0  0  0  0  0  0  0  0  0  0  0
  -26.9042    8.9161   31.7716 C   0  0  0  0  0  0  0  0  0  0  0  0
  -27.2855    9.5135   32.9857 C   0  0  0  0  0  0  0  0  0  0  0  0
  -28.1064   11.4981   29.2305 C   0  0  0  0  0  0  0  0  0  0  0  0
  -29.1902   12.3759   29.0563 C   0  0  0  0  0  0  0  0  0  0  0  0
  -30.5843   14.4272   26.2421 C   0  0  0  0  0  0  0  0  0  0  0  0
  -29.6030   15.5711   25.9398 C   0  0  2  0  0  0  0  0  0  0  0  0
  -30.8509   17.9756   23.2021 C   0  0  0  0  0  0  0  0  0  0  0  0
  -30.6168   17.4031   24.4681 C   0  0  0  0  0  0  0  0  0  0  0  0
  -29.3586   15.5986   23.4191 C   0  0  0  0  0  0  0  0  0  0  0  0
  -29.7458   16.4586   27.0261 O   0  0  0  0  0  0  0  0  0  0  0  0
  -29.3233   12.9701   27.8032 C   0  0  0  0  0  0  0  0  0  0  0  0
  -27.4802   11.8703   27.0699 C   0  0  0  0  0  0  0  0  0  0  0  0
  -30.3387   17.3595   22.0442 C   0  0  0  0  0  0  0  0  0  0  0  0
  -29.5929   16.1701   22.1529 C   0  0  0  0  0  0  0  0  0  0  0  0
  -29.8671   16.2110   24.5846 C   0  0  0  0  0  0  0  0  0  0  0  0
  -28.4623   12.7237   26.8119 N   0  0  0  0  0  0  0  0  0  0  0  0
  -27.2608   11.2462   28.2173 N   0  0  0  0  0  0  0  0  0  0  0  0
  -30.3676   13.8720   27.5798 N   0  0  0  0  0  0  0  0  0  0  0  0
  -28.6665   12.3816   31.7538 H   0  0  0  0  0  0  0  0  0  0  0  0
  -26.8739    9.0942   29.6222 H   0  0  0  0  0  0  0  0  0  0  0  0
  -26.4110    7.9548   31.7753 H   0  0  0  0  0  0  0  0  0  0  0  0
  -29.8961   12.5742   29.8471 H   0  0  0  0  0  0  0  0  0  0  0  0
  -30.4984   13.6420   25.4894 H   0  0  0  0  0  0  0  0  0  0  0  0
  -31.6090   14.7954   26.1861 H   0  0  0  0  0  0  0  0  0  0  0  0
  -28.5752   15.2050   25.9391 H   0  0  0  0  0  0  0  0  0  0  0  0
  -31.4283   18.8851   23.1197 H   0  0  0  0  0  0  0  0  0  0  0  0
  -31.0277   17.8781   25.3475 H   0  0  0  0  0  0  0  0  0  0  0  0
  -28.7885   14.6833   23.4956 H   0  0  0  0  0  0  0  0  0  0  0  0
  -29.7412   15.8916   27.7846 H   0  0  0  0  0  0  0  0  0  0  0  0
  -26.7894   11.6664   26.2654 H   0  0  0  0  0  0  0  0  0  0  0  0
  -30.5203   17.7973   21.0732 H   0  0  0  0  0  0  0  0  0  0  0  0
  -29.2017   15.6949   21.2649 H   0  0  0  0  0  0  0  0  0  0  0  0
  -30.5178   14.5548   28.3081 H   0  0  0  0  0  0  0  0  0  0  0  0
  -28.2637   11.3835   34.1324 F   0  0  0  0  0  0  0  0  0  0  0  0
  -27.0079    8.8307   34.2922 C   0  0  0  0  0  0  0  0  0  0  0  0
  -25.9548    8.9923   34.9048 O   0  0  0  0  0  0  0  0  0  0  0  0
  -28.1002    7.9379   34.8015 C   0  0  0  0  0  0  0  0  0  0  0  0
  -28.9341    7.9473   34.0996 H   0  0  0  0  0  0  0  0  0  0  0  0
  -27.7211    6.9208   34.9017 H   0  0  0  0  0  0  0  0  0  0  0  0
  -28.4393    8.2966   35.7733 H   0  0  0  0  0  0  0  0  0  0  0  0
  1  2  2  0
  1  3  1  0
  1  7  1  0
  2  4  1  0
  2 23  1  0
  3  5  2  0
  3 24  1  0
  4  6  2  0
  4 38  1  0
  5  6  1  0
  5 25  1  0
  6 39  1  0
  7  8  2  0
  7 21  1  0
  8 15  1  0
  8 26  1  0
  9 10  1  0
  9 22  1  0
  9 27  1  0
  9 28  1  0
 10 14  1  0
 10 19  1  0
 10 29  1  6
 11 12  2  0
 11 17  1  0
 11 30  1  0
 12 19  1  0
 12 31  1  0
 13 18  1  0
 13 19  2  0
 13 32  1  0
 14 33  1  0
 15 20  2  0
 15 22  1  0
 16 20  1  0
 16 21  2  0
 16 34  1  0
 17 18  2  0
 17 35  1  0
 18 36  1  0
 22 37  1  0
 39 40  2  0
 39 41  1  0
 41 42  1  0
 41 43  1  0
 41 44  1  0
M  END
>  <r_exp_dg>  (19) 
-11.5891

>  <experimental dG reference units>  (19) 
kcal/mol

>  <experimental dG reference field>  (19) 
r_exp_dg

>  <kJ/mol experimental dG>  (19) 
-48.4887944

>  <kcal/mol experimental dG>  (19) 
-11.5891

>  <AmberAM1BCCCache>  (19) 
gASVnwMAAAAAAABdlCiMFm51bXB5Ll9jb3JlLm11bHRpYXJyYXmUjAZzY2FsYXKUk5SMBW51bXB5lIwFZHR5cGWUk5SMAmY4lImIh5RSlChLA4wBPJROTk5K/////0r/////SwB0lGJDCO7F6dUnJ/O/lIaUUpRoA2gJQwhmni54pvD+v5SGlFKUaANoCUMI0or3j6eC9b+UhpRSlGgDaAlDCFnfiysYZP0/lIaUUpRoA2gJQwgg0mhC/0rpv5SGlFKUaANoCUMIj8zTfW2jAsCUhpRSlGgDaAlDCHNxsfdy8BdAlIaUUpRoA2gJQwjlacN/p2ITwJSGlFKUaANoCUMIt6tgeLNyA0CUhpRSlGgDaAlDCDW/vJTqoABAlIaUUpRoA2gJQwjmQztv2lb4v5SGlFKUaANoCUMIdYg1ZMua9b+UhpRSlGgDaAlDCHWINWTLmvW/lIaUUpRoA2gJQwifyopuB80cwJSGlFKUaANoCUMI7sb6ydvCH0CUhpRSlGgDaAlDCMabwV7IcB9AlIaUUpRoA2gJQwhzbt+CVaT2v5SGlFKUaANoCUMI5kM7b9pW+L+UhpRSlGgDaAlDCHPp2ZiT5/m/lIaUUpRoA2gJQwhAeJ6up7ohwJSGlFKUaANoCUMIZAnd66MLIcCUhpRSlGgDaAlDCFkUNSnwqyPAlIaUUpRoA2gJQwh5eMsi7Gj9P5SGlFKUaANoCUMI1WA3bVJa/j+UhpRSlGgDaAlDCBpcsxWaiv4/lIaUUpRoA2gJQwgzfU96pDj9P5SGlFKUaANoCUMII59g/FRT6T+UhpRSlGgDaAlDCCOfYPxUU+k/lIaUUpRoA2gJQwjPHk03xjvkP5SGlFKUaANoCUMIDNcb+VKj+T+UhpRSlGgDaAlDCFDF7LBfWPo/lIaUUpRoA2gJQwhQxeywX1j6P5SGlFKUaANoCUMIIK3v+0iEE0CUhpRSlGgDaAlDCNTnSfFlYuQ/lIaUUpRoA2gJQwjG259QC3P5P5SGlFKUaANoCUMIDNcb+VKj+T+UhpRSlGgDaAlDCKfNP6L9QhRAlIaUUpRoA2gJQwg2gFdkiwT6v5SGlFKUaANoCUMIgTL2kH14G0CUhpRSlGgDaAlDCDjdK1T7/hjAlIaUUpRoA2gJQwi+zbSTW5cCwJSGlFKUaANoCUMIaTV+DyOF6j+UhpRSlGgDaAlDCGk1fg8jheo/lIaUUpRoA2gJQwhpNX4PI4XqP5SGlFKUZS4=

$$$$
29
     RDKit          3D

 42 44  0  0  1  0  0  0  0  0999 V2000
  -27.8196   10.8206   30.5136 C   0  0  0  0  0  0  0  0  0  0  0  0
  -28.1862   11.4154   31.7424 C   0  0  0  0  0  0  0  0  0  0  0  0
  -27.1695    9.5648   30.5496 C   0  0  0  0  0  0  0  0  0  0  0  0
  -27.9122   10.7854   32.9706 C   0  0  0  0  0  0  0  0  0  0  0  0
  -26.9042    8.9161   31.7716 C   0  0  0  0  0  0  0  0  0  0  0  0
  -27.2855    9.5135   32.9857 C   0  0  0  0  0  0  0  0  0  0  0  0
  -28.1064   11.4981   29.2305 C   0  0  0  0  0  0  0  0  0  0  0  0
  -29.1902   12.3759   29.0563 C   0  0  0  0  0  0  0  0  0  0  0  0
  -30.5843   14.4272   26.2421 C   0  0  0  0  0  0  0  0  0  0  0  0
  -29.6030   15.5711   25.9398 C   0  0  2  0  0  0  0  0  0  0  0  0
  -30.8509   17.9756   23.2021 C   0  0  0  0  0  0  0  0  0  0  0  0
  -30.6168   17.4031   24.4681 C   0  0  0  0  0  0  0  0  0  0  0  0
  -29.3586   15.5986   23.4191 C   0  0  0  0  0  0  0  0  0  0  0  0
  -29.7458   16.4586   27.0261 O   0  0  0  0  0  0  0  0  0  0  0  0
  -29.3233   12.9701   27.8032 C   0  0  0  0  0  0  0  0  0  0  0  0
  -27.4802   11.8703   27.0699 C   0  0  0  0  0  0  0  0  0  0  0  0
  -30.3387   17.3595   22.0442 C   0  0  0  0  0  0  0  0  0  0  0  0
  -29.5929   16.1701   22.1529 C   0  0  0  0  0  0  0  0  0  0  0  0
  -29.8671   16.2110   24.5846 C   0  0  0  0  0  0  0  0  0  0  0  0
  -28.4623   12.7237   26.8119 N   0  0  0  0  0  0  0  0  0  0  0  0
  -27.2608   11.2462   28.2173 N   0  0  0  0  0  0  0  0  0  0  0  0
  -30.3676   13.8720   27.5798 N   0  0  0  0  0  0  0  0  0  0  0  0
  -28.6615   12.3839   31.7532 H   0  0  0  0  0  0  0  0  0  0  0  0
  -26.8723    9.0931   29.6238 H   0  0  0  0  0  0  0  0  0  0  0  0
  -26.4134    7.9540   31.7782 H   0  0  0  0  0  0  0  0  0  0  0  0
  -29.8829   12.5758   29.8582 H   0  0  0  0  0  0  0  0  0  0  0  0
  -30.4947   13.6431   25.4879 H   0  0  0  0  0  0  0  0  0  0  0  0
  -31.6090   14.7952   26.1785 H   0  0  0  0  0  0  0  0  0  0  0  0
  -28.5742   15.2080   25.9409 H   0  0  0  0  0  0  0  0  0  0  0  0
  -31.4206   18.8899   23.1225 H   0  0  0  0  0  0  0  0  0  0  0  0
  -31.0094   17.8846   25.3523 H   0  0  0  0  0  0  0  0  0  0  0  0
  -28.7844   14.6863   23.4966 H   0  0  0  0  0  0  0  0  0  0  0  0
  -29.7412   15.8916   27.7846 H   0  0  0  0  0  0  0  0  0  0  0  0
  -26.7895   11.6668   26.2654 H   0  0  0  0  0  0  0  0  0  0  0  0
  -30.5158   17.8004   21.0740 H   0  0  0  0  0  0  0  0  0  0  0  0
  -29.1982   15.6973   21.2654 H   0  0  0  0  0  0  0  0  0  0  0  0
  -31.1348   13.9025   28.2334 H   0  0  0  0  0  0  0  0  0  0  0  0
  -28.2418   11.3843   34.1150 F   0  0  0  0  0  0  0  0  0  0  0  0
  -27.0406    8.8337   34.2579 C   0  0  0  0  0  0  0  0  0  0  0  0
  -26.4253    7.6214   34.0213 F   0  0  0  0  0  0  0  0  0  0  0  0
  -26.2244    9.6165   35.0488 F   0  0  0  0  0  0  0  0  0  0  0  0
  -28.2407    8.6213   34.9051 F   0  0  0  0  0  0  0  0  0  0  0  0
  1  2  2  0
  1  3  1  0
  1  7  1  0
  2  4  1  0
  2 23  1  0
  3  5  2  0
  3 24  1  0
  4  6  2  0
  4 38  1  0
  5  6  1  0
  5 25  1  0
  6 39  1  0
  7  8  2  0
  7 21  1  0
  8 15  1  0
  8 26  1  0
  9 10  1  0
  9 22  1  0
  9 27  1  0
  9 28  1  0
 10 14  1  0
 10 19  1  0
 10 29  1  6
 11 12  2  0
 11 17  1  0
 11 30  1  0
 12 19  1  0
 12 31  1  0
 13 18  1  0
 13 19  2  0
 13 32  1  0
 14 33  1  0
 15 20  2  0
 15 22  1  0
 16 20  1  0
 16 21  2  0
 16 34  1  0
 17 18  2  0
 17 35  1  0
 18 36  1  0
 22 37  1  0
 39 40  1  0
 39 41  1  0
 39 42  1  0
M  END
>  <r_exp_dg>  (20) 
-10.806

>  <experimental dG reference units>  (20) 
kcal/mol

>  <experimental dG reference field>  (20) 
r_exp_dg

>  <kJ/mol experimental dG>  (20) 
-45.212303999999996

>  <kcal/mol experimental dG>  (20) 
-10.806

>  <AmberAM1BCCCache>  (20) 
gASVeQMAAAAAAABdlCiMFm51bXB5Ll9jb3JlLm11bHRpYXJyYXmUjAZzY2FsYXKUk5SMBW51bXB5lIwFZHR5cGWUk5SMAmY4lImIh5RSlChLA4wBPJROTk5K/////0r/////SwB0lGJDCGTbQBQ4gfG/lIaUUpRoA2gJQwjjG947jiT5v5SGlFKUaANoCUMISA9+Uk2l+b+UhpRSlGgDaAlDCOFOMl5SZgBAlIaUUpRoA2gJQwiOtC6BauPov5SGlFKUaANoCUMI7c5XKEUrA8CUhpRSlGgDaAlDCA67Pf0LwRdAlIaUUpRoA2gJQwgBpvbjt1cTwJSGlFKUaANoCUMIFTUmzXp4A0CUhpRSlGgDaAlDCPdIzfCrogBAlIaUUpRoA2gJQwhhMBq3V1P4v5SGlFKUaANoCUMIKHR+nVSf9b+UhpRSlGgDaAlDCCh0fp1Un/W/lIaUUpRoA2gJQwiQhKGqONgcwJSGlFKUaANoCUMIQImbSOPdH0CUhpRSlGgDaAlDCEreB+HMiR9AlIaUUpRoA2gJQwiqX0Iii3D2v5SGlFKUaANoCUMIYTAat1dT+L+UhpRSlGgDaAlDCO/VuOAQ5Pm/lIaUUpRoA2gJQwj/VnttJa4hwJSGlFKUaANoCUMIJmd+mDAJIcCUhpRSlGgDaAlDCNAxXlCBrCPAlIaUUpRoA2gJQwi2Fk4CBJkAQJSGlFKUaANoCUMIyKbYytha/D+UhpRSlGgDaAlDCBR53HyNLf4/lIaUUpRoA2gJQwi4kHAyJzz9P5SGlFKUaANoCUMIcMEeFaKK6T+UhpRSlGgDaAlDCHDBHhWiiuk/lIaUUpRoA2gJQwjWRY+ny0LkP5SGlFKUaANoCUMIkOo8sdWm+T+UhpRSlGgDaAlDCHDYwmHoX/o/lIaUUpRoA2gJQwhw2MJh6F/6P5SGlFKUaANoCUMIAvL3qSmFE0CUhpRSlGgDaAlDCPH7ewOKKuU/lIaUUpRoA2gJQwhL78AIjnb5P5SGlFKUaANoCUMIkOo8sdWm+T+UhpRSlGgDaAlDCFkRZzrwTxRAlIaUUpRoA2gJQwiKxgIrt2v2v5SGlFKUaANoCUMImzjexadpIECUhpRSlGgDaAlDCF2KXTNU5wXAlIaUUpRoA2gJQwhdil0zVOcFwJSGlFKUaANoCUMIXYpdM1TnBcCUhpRSlGUu

$$$$
30
     RDKit          3D

 42 44  0  0  1  0  0  0  0  0999 V2000
  -27.8196   10.8206   30.5136 C   0  0  0  0  0  0  0  0  0  0  0  0
  -28.1862   11.4154   31.7424 C   0  0  0  0  0  0  0  0  0  0  0  0
  -27.1695    9.5648   30.5496 C   0  0  0  0  0  0  0  0  0  0  0  0
  -27.9122   10.7854   32.9706 C   0  0  0  0  0  0  0  0  0  0  0  0
  -26.9042    8.9161   31.7716 C   0  0  0  0  0  0  0  0  0  0  0  0
  -27.2855    9.5135   32.9857 C   0  0  0  0  0  0  0  0  0  0  0  0
  -28.1064   11.4981   29.2305 C   0  0  0  0  0  0  0  0  0  0  0  0
  -29.1902   12.3759   29.0563 C   0  0  0  0  0  0  0  0  0  0  0  0
  -30.5843   14.4272   26.2421 C   0  0  0  0  0  0  0  0  0  0  0  0
  -29.6030   15.5711   25.9398 C   0  0  2  0  0  0  0  0  0  0  0  0
  -30.8509   17.9756   23.2021 C   0  0  0  0  0  0  0  0  0  0  0  0
  -30.6168   17.4031   24.4681 C   0  0  0  0  0  0  0  0  0  0  0  0
  -29.3586   15.5986   23.4191 C   0  0  0  0  0  0  0  0  0  0  0  0
  -29.7458   16.4586   27.0261 O   0  0  0  0  0  0  0  0  0  0  0  0
  -29.3233   12.9701   27.8032 C   0  0  0  0  0  0  0  0  0  0  0  0
  -27.4802   11.8703   27.0699 C   0  0  0  0  0  0  0  0  0  0  0  0
  -30.3387   17.3595   22.0442 C   0  0  0  0  0  0  0  0  0  0  0  0
  -29.5929   16.1701   22.1529 C   0  0  0  0  0  0  0  0  0  0  0  0
  -29.8671   16.2110   24.5846 C   0  0  0  0  0  0  0  0  0  0  0  0
  -28.4623   12.7237   26.8119 N   0  0  0  0  0  0  0  0  0  0  0  0
  -27.2608   11.2462   28.2173 N   0  0  0  0  0  0  0  0  0  0  0  0
  -30.3676   13.8720   27.5798 N   0  0  0  0  0  0  0  0  0  0  0  0
  -28.6615   12.3839   31.7532 H   0  0  0  0  0  0  0  0  0  0  0  0
  -26.8723    9.0931   29.6238 H   0  0  0  0  0  0  0  0  0  0  0  0
  -26.4134    7.9540   31.7782 H   0  0  0  0  0  0  0  0  0  0  0  0
  -29.8829   12.5758   29.8582 H   0  0  0  0  0  0  0  0  0  0  0  0
  -30.4947   13.6431   25.4879 H   0  0  0  0  0  0  0  0  0  0  0  0
  -31.6090   14.7952   26.1785 H   0  0  0  0  0  0  0  0  0  0  0  0
  -28.5742   15.2080   25.9409 H   0  0  0  0  0  0  0  0  0  0  0  0
  -31.4206   18.8899   23.1225 H   0  0  0  0  0  0  0  0  0  0  0  0
  -31.0094   17.8846   25.3523 H   0  0  0  0  0  0  0  0  0  0  0  0
  -28.7844   14.6863   23.4966 H   0  0  0  0  0  0  0  0  0  0  0  0
  -29.7412   15.8916   27.7846 H   0  0  0  0  0  0  0  0  0  0  0  0
  -26.7895   11.6668   26.2654 H   0  0  0  0  0  0  0  0  0  0  0  0
  -30.5158   17.8004   21.0740 H   0  0  0  0  0  0  0  0  0  0  0  0
  -29.1982   15.6973   21.2654 H   0  0  0  0  0  0  0  0  0  0  0  0
  -31.1348   13.9025   28.2334 H   0  0  0  0  0  0  0  0  0  0  0  0
  -28.2930   11.4773   34.2927 C   0  0  0  0  0  0  0  0  0  0  0  0
  -26.9959    8.7097   34.4900 Cl  0  0  0  0  0  0  0  0  0  0  0  0
  -27.9288   10.6744   35.3544 F   0  0  0  0  0  0  0  0  0  0  0  0
  -27.6358   12.6873   34.3853 F   0  0  0  0  0  0  0  0  0  0  0  0
  -29.6559   11.6912   34.3249 F   0  0  0  0  0  0  0  0  0  0  0  0
  1  2  2  0
  1  3  1  0
  1  7  1  0
  2  4  1  0
  2 23  1  0
  3  5  2  0
  3 24  1  0
  4  6  2  0
  4 38  1  0
  5  6  1  0
  5 25  1  0
  6 39  1  0
  7  8  2  0
  7 21  1  0
  8 15  1  0
  8 26  1  0
  9 10  1  0
  9 22  1  0
  9 27  1  0
  9 28  1  0
 10 14  1  0
 10 19  1  0
 10 29  1  6
 11 12  2  0
 11 17  1  0
 11 30  1  0
 12 19  1  0
 12 31  1  0
 13 18  1  0
 13 19  2  0
 13 32  1  0
 14 33  1  0
 15 20  2  0
 15 22  1  0
 16 20  1  0
 16 21  2  0
 16 34  1  0
 17 18  2  0
 17 35  1  0
 18 36  1  0
 22 37  1  0
 38 40  1  0
 38 41  1  0
 38 42  1  0
M  END
>  <r_exp_dg>  (21) 
-9.90394

>  <experimental dG reference units>  (21) 
kcal/mol

>  <experimental dG reference field>  (21) 
r_exp_dg

>  <kJ/mol experimental dG>  (21) 
-41.438084960000005

>  <kcal/mol experimental dG>  (21) 
-9.90394

>  <AmberAM1BCCCache>  (21) 
gASVeQMAAAAAAABdlCiMFm51bXB5Ll9jb3JlLm11bHRpYXJyYXmUjAZzY2FsYXKUk5SMBW51bXB5lIwFZHR5cGWUk5SMAmY4lImIh5RSlChLA4wBPJROTk5K/////0r/////SwB0lGJDCJzwrNH38vy/lIaUUpRoA2gJQwgFS/Q2jarcv5SGlFKUaANoCUMIr7RA8RsL7b+UhpRSlGgDaAlDCJ+08t0sJwDAlIaUUpRoA2gJQwhzMCNvMGf6v5SGlFKUaANoCUMImq8m9j8t6j+UhpRSlGgDaAlDCGVjpxl8LRhAlIaUUpRoA2gJQwi47PONSJgTwJSGlFKUaANoCUMIQJo1gSSAA0CUhpRSlGgDaAlDCO2ucrNJogBAlIaUUpRoA2gJQwh2ZM8xHFT4v5SGlFKUaANoCUMIqaYH+zCw9b+UhpRSlGgDaAlDCKmmB/swsPW/lIaUUpRoA2gJQwiV0U7JadgcwJSGlFKUaANoCUMI1jujIrjhH0CUhpRSlGgDaAlDCBWQeaytlR9AlIaUUpRoA2gJQwi+k/ecT3H2v5SGlFKUaANoCUMIdmTPMRxU+L+UhpRSlGgDaAlDCAMKblvV5Pm/lIaUUpRoA2gJQwhT/PDmT7ohwJSGlFKUaANoCUMISIxODl4XIcCUhpRSlGgDaAlDCB9YD9ycriPAlIaUUpRoA2gJQwhOejGZxbAAQJSGlFKUaANoCUMIvH1XHG3p+z+UhpRSlGgDaAlDCC5Tswjym/0/lIaUUpRoA2gJQwgYZsNm09r8P5SGlFKUaANoCUMIAV44d9FY6T+UhpRSlGgDaAlDCAFeOHfRWOk/lIaUUpRoA2gJQwit3SSyQkHkP5SGlFKUaANoCUMIe7aHNhGm+T+UhpRSlGgDaAlDCJKjd9gvZ/o/lIaUUpRoA2gJQwiSo3fYL2f6P5SGlFKUaANoCUMI/KRKi/iEE0CUhpRSlGgDaAlDCD2dGb1xyOQ/lIaUUpRoA2gJQwg2uwuOyXX5P5SGlFKUaANoCUMIe7aHNhGm+T+UhpRSlGgDaAlDCILFmjGtQxRAlIaUUpRoA2gJQwjfE1lXdFcgQJSGlFKUaANoCUMIwk3utWrl5L+UhpRSlGgDaAlDCOy4i36c1wXAlIaUUpRoA2gJQwjsuIt+nNcFwJSGlFKUaANoCUMI7LiLfpzXBcCUhpRSlGUu

$$$$
31
     RDKit          3D

 42 44  0  0  1  0  0  0  0  0999 V2000
  -27.8196   10.8206   30.5136 C   0  0  0  0  0  0  0  0  0  0  0  0
  -28.1862   11.4154   31.7424 C   0  0  0  0  0  0  0  0  0  0  0  0
  -27.1695    9.5648   30.5496 C   0  0  0  0  0  0  0  0  0  0  0  0
  -27.9122   10.7854   32.9706 C   0  0  0  0  0  0  0  0  0  0  0  0
  -26.9042    8.9161   31.7716 C   0  0  0  0  0  0  0  0  0  0  0  0
  -27.2855    9.5135   32.9857 C   0  0  0  0  0  0  0  0  0  0  0  0
  -28.1064   11.4981   29.2305 C   0  0  0  0  0  0  0  0  0  0  0  0
  -29.1902   12.3759   29.0563 C   0  0  0  0  0  0  0  0  0  0  0  0
  -30.5843   14.4272   26.2421 C   0  0  0  0  0  0  0  0  0  0  0  0
  -29.6030   15.5711   25.9398 C   0  0  2  0  0  0  0  0  0  0  0  0
  -30.8509   17.9756   23.2021 C   0  0  0  0  0  0  0  0  0  0  0  0
  -30.6168   17.4031   24.4681 C   0  0  0  0  0  0  0  0  0  0  0  0
  -29.3586   15.5986   23.4191 C   0  0  0  0  0  0  0  0  0  0  0  0
  -29.7458   16.4586   27.0261 O   0  0  0  0  0  0  0  0  0  0  0  0
  -29.3233   12.9701   27.8032 C   0  0  0  0  0  0  0  0  0  0  0  0
  -27.4802   11.8703   27.0699 C   0  0  0  0  0  0  0  0  0  0  0  0
  -30.3387   17.3595   22.0442 C   0  0  0  0  0  0  0  0  0  0  0  0
  -29.5929   16.1701   22.1529 C   0  0  0  0  0  0  0  0  0  0  0  0
  -29.8671   16.2110   24.5846 C   0  0  0  0  0  0  0  0  0  0  0  0
  -28.4623   12.7237   26.8119 N   0  0  0  0  0  0  0  0  0  0  0  0
  -27.2608   11.2462   28.2173 N   0  0  0  0  0  0  0  0  0  0  0  0
  -30.3676   13.8720   27.5798 N   0  0  0  0  0  0  0  0  0  0  0  0
  -28.6615   12.3839   31.7532 H   0  0  0  0  0  0  0  0  0  0  0  0
  -26.8723    9.0931   29.6238 H   0  0  0  0  0  0  0  0  0  0  0  0
  -26.4134    7.9540   31.7782 H   0  0  0  0  0  0  0  0  0  0  0  0
  -29.8829   12.5758   29.8582 H   0  0  0  0  0  0  0  0  0  0  0  0
  -30.4947   13.6431   25.4879 H   0  0  0  0  0  0  0  0  0  0  0  0
  -31.6090   14.7952   26.1785 H   0  0  0  0  0  0  0  0  0  0  0  0
  -28.5742   15.2080   25.9409 H   0  0  0  0  0  0  0  0  0  0  0  0
  -31.4206   18.8899   23.1225 H   0  0  0  0  0  0  0  0  0  0  0  0
  -31.0094   17.8846   25.3523 H   0  0  0  0  0  0  0  0  0  0  0  0
  -28.7844   14.6863   23.4966 H   0  0  0  0  0  0  0  0  0  0  0  0
  -29.7412   15.8916   27.7846 H   0  0  0  0  0  0  0  0  0  0  0  0
  -26.7895   11.6668   26.2654 H   0  0  0  0  0  0  0  0  0  0  0  0
  -30.5158   17.8004   21.0740 H   0  0  0  0  0  0  0  0  0  0  0  0
  -29.1982   15.6973   21.2654 H   0  0  0  0  0  0  0  0  0  0  0  0
  -31.1348   13.9025   28.2334 H   0  0  0  0  0  0  0  0  0  0  0  0
  -28.3399   11.5627   34.4558 Cl  0  0  0  0  0  0  0  0  0  0  0  0
  -27.0277    8.7980   34.3248 C   0  0  0  0  0  0  0  0  0  0  0  0
  -26.4124    7.5856   34.0883 F   0  0  0  0  0  0  0  0  0  0  0  0
  -26.2115    9.5807   35.1157 F   0  0  0  0  0  0  0  0  0  0  0  0
  -28.2278    8.5855   34.9721 F   0  0  0  0  0  0  0  0  0  0  0  0
  1  2  2  0
  1  3  1  0
  1  7  1  0
  2  4  1  0
  2 23  1  0
  3  5  2  0
  3 24  1  0
  4  6  2  0
  4 38  1  0
  5  6  1  0
  5 25  1  0
  6 39  1  0
  7  8  2  0
  7 21  1  0
  8 15  1  0
  8 26  1  0
  9 10  1  0
  9 22  1  0
  9 27  1  0
  9 28  1  0
 10 14  1  0
 10 19  1  0
 10 29  1  6
 11 12  2  0
 11 17  1  0
 11 30  1  0
 12 19  1  0
 12 31  1  0
 13 18  1  0
 13 19  2  0
 13 32  1  0
 14 33  1  0
 15 20  2  0
 15 22  1  0
 16 20  1  0
 16 21  2  0
 16 34  1  0
 17 18  2  0
 17 35  1  0
 18 36  1  0
 22 37  1  0
 39 40  1  0
 39 41  1  0
 39 42  1  0
M  END
>  <r_exp_dg>  (22) 
-11.2901

>  <experimental dG reference units>  (22) 
kcal/mol

>  <experimental dG reference field>  (22) 
r_exp_dg

>  <kJ/mol experimental dG>  (22) 
-47.2377784

>  <kcal/mol experimental dG>  (22) 
-11.2901

>  <AmberAM1BCCCache>  (22) 
gASVeQMAAAAAAABdlCiMFm51bXB5Ll9jb3JlLm11bHRpYXJyYXmUjAZzY2FsYXKUk5SMBW51bXB5lIwFZHR5cGWUk5SMAmY4lImIh5RSlChLA4wBPJROTk5K/////0r/////SwB0lGJDCDCsGqSn2PS/lIaUUpRoA2gJQwgavyoCiRf0v5SGlFKUaANoCUMIX7qmqtBH9L+UhpRSlGgDaAlDCDtYmaGvseQ/lIaUUpRoA2gJQwjDJMFbhAnwv5SGlFKUaANoCUMIyKKkJ7xj/b+UhpRSlGgDaAlDCJwv/mqQ2BdAlIaUUpRoA2gJQwixLilDXVwTwJSGlFKUaANoCUMITyN2BzZzA0CUhpRSlGgDaAlDCM020iNtoQBAlIaUUpRoA2gJQwi1VBBR1VX4v5SGlFKUaANoCUMIRpkKRsaZ9b+UhpRSlGgDaAlDCEaZCkbGmfW/lIaUUpRoA2gJQwg7jg8cz9IcwJSGlFKUaANoCUMIXIDD5UDbH0CUhpRSlGgDaAlDCMzVeoUkgx9AlIaUUpRoA2gJQwj+gzi8CHP2v5SGlFKUaANoCUMItVQQUdVV+L+UhpRSlGgDaAlDCEP6rnqO5vm/lIaUUpRoA2gJQwg920GbebEhwJSGlFKUaANoCUMIM2ufwocOIcCUhpRSlGgDaAlDCL/25wrLqCPAlIaUUpRoA2gJQwilM0p+BX3/P5SGlFKUaANoCUMI72Jy6Tia/T+UhpRSlGgDaAlDCGNSJLczQ/4/lIaUUpRoA2gJQwjBbjzEhSH9P5SGlFKUaANoCUMIx3gy4aaF6T+UhpRSlGgDaAlDCMd4MuGmhek/lIaUUpRoA2gJQwgu/aJz0D3kP5SGlFKUaANoCUMIPMZGF1ik+T+UhpRSlGgDaAlDCIG0F89kWfo/lIaUUpRoA2gJQwiBtBfPZFn6P5SGlFKUaANoCUMI7Gh6Q4qEE0CUhpRSlGgDaAlDCL68l37/xOQ/lIaUUpRoA2gJQwj3yspuEHT5P5SGlFKUaANoCUMIPMZGF1ik+T+UhpRSlGgDaAlDCNsI2t5HSRRAlIaUUpRoA2gJQwgSIOTts3nlv5SGlFKUaANoCUMIbnZhPjRRIECUhpRSlGgDaAlDCIacWACT6AXAlIaUUpRoA2gJQwiGnFgAk+gFwJSGlFKUaANoCUMIhpxYAJPoBcCUhpRSlGUu

$$$$
33 (Saha 2018)
     RDKit          3D

 42 44  0  0  1  0  0  0  0  0999 V2000
  -27.8196   10.8206   30.5136 C   0  0  0  0  0  0  0  0  0  0  0  0
  -28.1862   11.4154   31.7424 C   0  0  0  0  0  0  0  0  0  0  0  0
  -27.1695    9.5648   30.5496 C   0  0  0  0  0  0  0  0  0  0  0  0
  -27.9122   10.7854   32.9706 C   0  0  0  0  0  0  0  0  0  0  0  0
  -26.9042    8.9161   31.7716 C   0  0  0  0  0  0  0  0  0  0  0  0
  -27.2855    9.5135   32.9857 C   0  0  0  0  0  0  0  0  0  0  0  0
  -28.1064   11.4981   29.2305 C   0  0  0  0  0  0  0  0  0  0  0  0
  -29.1902   12.3759   29.0563 C   0  0  0  0  0  0  0  0  0  0  0  0
  -30.5843   14.4272   26.2421 C   0  0  0  0  0  0  0  0  0  0  0  0
  -29.6030   15.5711   25.9398 C   0  0  2  0  0  0  0  0  0  0  0  0
  -30.8509   17.9756   23.2021 C   0  0  0  0  0  0  0  0  0  0  0  0
  -30.6168   17.4031   24.4681 C   0  0  0  0  0  0  0  0  0  0  0  0
  -29.3586   15.5986   23.4191 C   0  0  0  0  0  0  0  0  0  0  0  0
  -29.7458   16.4586   27.0261 O   0  0  0  0  0  0  0  0  0  0  0  0
  -29.3233   12.9701   27.8032 C   0  0  0  0  0  0  0  0  0  0  0  0
  -27.4802   11.8703   27.0699 C   0  0  0  0  0  0  0  0  0  0  0  0
  -30.3387   17.3595   22.0442 C   0  0  0  0  0  0  0  0  0  0  0  0
  -29.5929   16.1701   22.1529 C   0  0  0  0  0  0  0  0  0  0  0  0
  -29.8671   16.2110   24.5846 C   0  0  0  0  0  0  0  0  0  0  0  0
  -28.4623   12.7237   26.8119 N   0  0  0  0  0  0  0  0  0  0  0  0
  -27.2608   11.2462   28.2173 N   0  0  0  0  0  0  0  0  0  0  0  0
  -30.3676   13.8720   27.5798 N   0  0  0  0  0  0  0  0  0  0  0  0
  -28.6615   12.3839   31.7532 H   0  0  0  0  0  0  0  0  0  0  0  0
  -26.8723    9.0931   29.6238 H   0  0  0  0  0  0  0  0  0  0  0  0
  -26.4134    7.9540   31.7782 H   0  0  0  0  0  0  0  0  0  0  0  0
  -29.8829   12.5758   29.8582 H   0  0  0  0  0  0  0  0  0  0  0  0
  -30.4947   13.6431   25.4879 H   0  0  0  0  0  0  0  0  0  0  0  0
  -31.6090   14.7952   26.1785 H   0  0  0  0  0  0  0  0  0  0  0  0
  -28.5742   15.2080   25.9409 H   0  0  0  0  0  0  0  0  0  0  0  0
  -31.4206   18.8899   23.1225 H   0  0  0  0  0  0  0  0  0  0  0  0
  -31.0094   17.8846   25.3523 H   0  0  0  0  0  0  0  0  0  0  0  0
  -28.7844   14.6863   23.4966 H   0  0  0  0  0  0  0  0  0  0  0  0
  -29.7412   15.8916   27.7846 H   0  0  0  0  0  0  0  0  0  0  0  0
  -26.7895   11.6668   26.2654 H   0  0  0  0  0  0  0  0  0  0  0  0
  -30.5158   17.8004   21.0740 H   0  0  0  0  0  0  0  0  0  0  0  0
  -29.1058   15.5867   21.0578 F   0  0  0  0  0  0  0  0  0  0  0  0
  -31.1348   13.9025   28.2334 H   0  0  0  0  0  0  0  0  0  0  0  0
  -28.3399   11.5627   34.4558 Cl  0  0  0  0  0  0  0  0  0  0  0  0
  -27.0277    8.7980   34.3248 C   0  0  0  0  0  0  0  0  0  0  0  0
  -26.4124    7.5856   34.0883 F   0  0  0  0  0  0  0  0  0  0  0  0
  -26.2115    9.5807   35.1157 F   0  0  0  0  0  0  0  0  0  0  0  0
  -28.2278    8.5855   34.9721 F   0  0  0  0  0  0  0  0  0  0  0  0
  1  2  2  0
  1  3  1  0
  1  7  1  0
  2  4  1  0
  2 23  1  0
  3  5  2  0
  3 24  1  0
  4  6  2  0
  4 38  1  0
  5  6  1  0
  5 25  1  0
  6 39  1  0
  7  8  2  0
  7 21  1  0
  8 15  1  0
  8 26  1  0
  9 10  1  0
  9 22  1  0
  9 27  1  0
  9 28  1  0
 10 14  1  0
 10 19  1  0
 10 29  1  6
 11 12  2  0
 11 17  1  0
 11 30  1  0
 12 19  1  0
 12 31  1  0
 13 18  1  0
 13 19  2  0
 13 32  1  0
 14 33  1  0
 15 20  2  0
 15 22  1  0
 16 20  1  0
 16 21  2  0
 16 34  1  0
 17 18  2  0
 17 35  1  0
 18 36  1  0
 22 37  1  0
 39 40  1  0
 39 41  1  0
 39 42  1  0
M  END
>  <r_exp_dg>  (23) 
-9.73619

>  <experimental dG reference units>  (23) 
kcal/mol

>  <experimental dG reference field>  (23) 
r_exp_dg

>  <kJ/mol experimental dG>  (23) 
-40.73621896

>  <kcal/mol experimental dG>  (23) 
-9.73619

>  <AmberAM1BCCCache>  (23) 
gASVeQMAAAAAAABdlCiMFm51bXB5Ll9jb3JlLm11bHRpYXJyYXmUjAZzY2FsYXKUk5SMBW51bXB5lIwFZHR5cGWUk5SMAmY4lImIh5RSlChLA4wBPJROTk5K/////0r/////SwB0lGJDCCVE1zUj4vS/lIaUUpRoA2gJQwg9WMip8hT0v5SGlFKUaANoCUMIglNEUjpF9L+UhpRSlGgDaAlDCPIlXlLctuQ/lIaUUpRoA2gJQwgsfn8yuPXvv5SGlFKUaANoCUMI7DtCzyVh/b+UhpRSlGgDaAlDCG8IrnBD4hdAlIaUUpRoA2gJQwhF1Ygys1gTwJSGlFKUaANoCUMIj1XGHZOAA0CUhpRSlGgDaAlDCPVuh6dwcgBAlIaUUpRoA2gJQwgPZJKEP5zzv5SGlFKUaANoCUMIZOSlSc6z+L+UhpRSlGgDaAlDCKJ3yWw+Cv2/lIaUUpRoA2gJQwjGtyFC+LAcwJSGlFKUaANoCUMI9dpEDNnSH0CUhpRSlGgDaAlDCOruohDTiR9AlIaUUpRoA2gJQwgtbsG9zWr9v5SGlFKUaANoCUMIhr4NjJXv9z+UhpRSlGgDaAlDCBITOV1pzPS/lIaUUpRoA2gJQwg8bnkNqbIhwJSGlFKUaANoCUMI756DAiwIIcCUhpRSlGgDaAlDCHJJp/f+rCPAlIaUUpRoA2gJQwjfnG4CeGf/P5SGlFKUaANoCUMI+cq1V72Q/T+UhpRSlGgDaAlDCBC4pfnbUf4/lIaUUpRoA2gJQwjj0BrFY1T9P5SGlFKUaANoCUMIxUFzOhu76T+UhpRSlGgDaAlDCMVBczobu+k/lIaUUpRoA2gJQwjMqcu/8pTlP5SGlFKUaANoCUMIuBCRYpzI+j+UhpRSlGgDaAlDCOTqcKbZSvw/lIaUUpRoA2gJQwi13OSfsNv8P5SGlFKUaANoCUMIpAKT2S+FE0CUhpRSlGgDaAlDCP+AVIC7KuU/lIaUUpRoA2gJQwhv4Wj3aKv8P5SGlFKUaANoCUMI5C5ORajQ+b+UhpRSlGgDaAlDCN7iavroRhRAlIaUUpRoA2gJQwhyWWXAGyzlv5SGlFKUaANoCUMIScNtCYdRIECUhpRSlGgDaAlDCHs7mmpA4QXAlIaUUpRoA2gJQwh7O5pqQOEFwJSGlFKUaANoCUMIezuaakDhBcCUhpRSlGUu

$$$$
39
     RDKit          3D

 42 44  0  0  1  0  0  0  0  0999 V2000
  -27.8196   10.8206   30.5136 C   0  0  0  0  0  0  0  0  0  0  0  0
  -28.1862   11.4154   31.7424 C   0  0  0  0  0  0  0  0  0  0  0  0
  -27.1695    9.5648   30.5496 C   0  0  0  0  0  0  0  0  0  0  0  0
  -27.9122   10.7854   32.9706 C   0  0  0  0  0  0  0  0  0  0  0  0
  -26.9042    8.9161   31.7716 C   0  0  0  0  0  0  0  0  0  0  0  0
  -27.2855    9.5135   32.9857 C   0  0  0  0  0  0  0  0  0  0  0  0
  -28.1064   11.4981   29.2305 C   0  0  0  0  0  0  0  0  0  0  0  0
  -29.1902   12.3759   29.0563 C   0  0  0  0  0  0  0  0  0  0  0  0
  -30.5843   14.4272   26.2421 C   0  0  0  0  0  0  0  0  0  0  0  0
  -29.6030   15.5711   25.9398 C   0  0  2  0  0  0  0  0  0  0  0  0
  -29.5929   16.1701   22.1529 C   0  0  0  0  0  0  0  0  0  0  0  0
  -29.3586   15.5986   23.4191 C   0  0  0  0  0  0  0  0  0  0  0  0
  -30.6168   17.4031   24.4681 C   0  0  0  0  0  0  0  0  0  0  0  0
  -29.7458   16.4586   27.0261 O   0  0  0  0  0  0  0  0  0  0  0  0
  -29.3233   12.9701   27.8032 C   0  0  0  0  0  0  0  0  0  0  0  0
  -27.4802   11.8703   27.0699 C   0  0  0  0  0  0  0  0  0  0  0  0
  -30.3387   17.3595   22.0442 C   0  0  0  0  0  0  0  0  0  0  0  0
  -30.8509   17.9756   23.2021 C   0  0  0  0  0  0  0  0  0  0  0  0
  -29.8671   16.2110   24.5846 C   0  0  0  0  0  0  0  0  0  0  0  0
  -28.4623   12.7237   26.8119 N   0  0  0  0  0  0  0  0  0  0  0  0
  -27.2608   11.2462   28.2173 N   0  0  0  0  0  0  0  0  0  0  0  0
  -30.3676   13.8720   27.5798 N   0  0  0  0  0  0  0  0  0  0  0  0
  -28.6615   12.3839   31.7532 H   0  0  0  0  0  0  0  0  0  0  0  0
  -26.8723    9.0931   29.6238 H   0  0  0  0  0  0  0  0  0  0  0  0
  -26.4134    7.9540   31.7782 H   0  0  0  0  0  0  0  0  0  0  0  0
  -29.8829   12.5758   29.8582 H   0  0  0  0  0  0  0  0  0  0  0  0
  -30.4947   13.6431   25.4879 H   0  0  0  0  0  0  0  0  0  0  0  0
  -31.6090   14.7952   26.1785 H   0  0  0  0  0  0  0  0  0  0  0  0
  -28.5742   15.2080   25.9409 H   0  0  0  0  0  0  0  0  0  0  0  0
  -29.2026   15.6918   21.2664 H   0  0  0  0  0  0  0  0  0  0  0  0
  -28.7904   14.6823   23.4942 H   0  0  0  0  0  0  0  0  0  0  0  0
  -31.0149   17.8794   25.3527 H   0  0  0  0  0  0  0  0  0  0  0  0
  -29.7412   15.8916   27.7846 H   0  0  0  0  0  0  0  0  0  0  0  0
  -26.7895   11.6668   26.2654 H   0  0  0  0  0  0  0  0  0  0  0  0
  -30.5621   17.8994   20.8461 F   0  0  0  0  0  0  0  0  0  0  0  0
  -31.5604   19.0994   23.0997 F   0  0  0  0  0  0  0  0  0  0  0  0
  -31.1348   13.9025   28.2334 H   0  0  0  0  0  0  0  0  0  0  0  0
  -28.3399   11.5627   34.4558 Cl  0  0  0  0  0  0  0  0  0  0  0  0
  -27.0277    8.7980   34.3248 C   0  0  0  0  0  0  0  0  0  0  0  0
  -26.4124    7.5856   34.0883 F   0  0  0  0  0  0  0  0  0  0  0  0
  -26.2115    9.5807   35.1157 F   0  0  0  0  0  0  0  0  0  0  0  0
  -28.2278    8.5855   34.9721 F   0  0  0  0  0  0  0  0  0  0  0  0
  1  2  2  0
  1  3  1  0
  1  7  1  0
  2  4  1  0
  2 23  1  0
  3  5  2  0
  3 24  1  0
  4  6  2  0
  4 38  1  0
  5  6  1  0
  5 25  1  0
  6 39  1  0
  7  8  2  0
  7 21  1  0
  8 15  1  0
  8 26  1  0
  9 10  1  0
  9 22  1  0
  9 27  1  0
  9 28  1  0
 10 14  1  0
 10 19  1  0
 10 29  1  6
 11 12  2  0
 11 17  1  0
 11 30  1  0
 12 19  1  0
 12 31  1  0
 13 18  1  0
 13 19  2  0
 13 32  1  0
 14 33  1  0
 15 20  2  0
 15 22  1  0
 16 20  1  0
 16 21  2  0
 16 34  1  0
 17 18  2  0
 17 35  1  0
 18 36  1  0
 22 37  1  0
 39 40  1  0
 39 41  1  0
 39 42  1  0
M  END
>  <r_exp_dg>  (24) 
-10.7146

>  <experimental dG reference units>  (24) 
kcal/mol

>  <experimental dG reference field>  (24) 
r_exp_dg

>  <kJ/mol experimental dG>  (24) 
-44.82988640000001

>  <kcal/mol experimental dG>  (24) 
-10.7146

>  <AmberAM1BCCCache>  (24) 
gASVeQMAAAAAAABdlCiMFm51bXB5Ll9jb3JlLm11bHRpYXJyYXmUjAZzY2FsYXKUk5SMBW51bXB5lIwFZHR5cGWUk5SMAmY4lImIh5RSlChLA4wBPJROTk5K/////0r/////SwB0lGJDCO7GQvj5B/W/lIaUUpRoA2gJQwhu9dRUOS3zv5SGlFKUaANoCUMIuMfYBu7/9L+UhpRSlGgDaAlDCNsabWeCo+Q/lIaUUpRoA2gJQwjHjoqDvtDvv5SGlFKUaANoCUMIecG6xNJq/b+UhpRSlGgDaAlDCI4mMqrf5BdAlIaUUpRoA2gJQwi9N/UDDlATwJSGlFKUaANoCUMIYxK/m8J/A0CUhpRSlGgDaAlDCBAn/M3noQBAlIaUUpRoA2gJQwj8MYQzy/j6v5SGlFKUaANoCUMIquUcMSjO87+UhpRSlGgDaAlDCLtqtE1vtfi/lIaUUpRoA2gJQwhtG28pQZwcwJSGlFKUaANoCUMIDfs/alfBH0CUhpRSlGgDaAlDCFZNn89qiR9AlIaUUpRoA2gJQwjypNtkhJfzP5SGlFKUaANoCUMIgM9/eP/k8T+UhpRSlGgDaAlDCHtSi0A9ove/lIaUUpRoA2gJQwjhHj9rX7QhwJSGlFKUaANoCUMIAjG5ukz7IMCUhpRSlGgDaAlDCBb6bFW1riPAlIaUUpRoA2gJQwhKDMJAcs7/P5SGlFKUaANoCUMIEFAmJ28a/T+UhpRSlGgDaAlDCB0y4vw0TP4/lIaUUpRoA2gJQwhWS6LPtkr9P5SGlFKUaANoCUMI9DH+9wjY6T+UhpRSlGgDaAlDCPQx/vcI2Ok/lIaUUpRoA2gJQwgZknrrVwLmP5SGlFKUaANoCUMIADq+jr37/T+UhpRSlGgDaAlDCC9ISpXmav0/lIaUUpRoA2gJQwi6PkLmdcv9P5SGlFKUaANoCUMIDmGPmMeEE0CUhpRSlGgDaAlDCAduhwPZZ+U/lIaUUpRoA2gJQwjiAJ3Bzs32v5SGlFKUaANoCUMIJ/wYahb+9r+UhpRSlGgDaAlDCF+CdU1wOxRAlIaUUpRoA2gJQwiDc3jAkqbkv5SGlFKUaANoCUMIfvLr6FJRIECUhpRSlGgDaAlDCKvRvm5e3QXAlIaUUpRoA2gJQwir0b5uXt0FwJSGlFKUaANoCUMIq9G+bl7dBcCUhpRSlGUu

$$$$
