18a
     RDKit          3D

 53 56  0  0  1  0  0  0  0  0999 V2000
   10.8011   -9.2877    0.2796 C   0  0  0  0  0  0  0  0  0  0  0  0
   11.9594   -9.0271   -0.4571 C   0  0  0  0  0  0  0  0  0  0  0  0
   10.8214   -9.1701    1.6720 C   0  0  0  0  0  0  0  0  0  0  0  0
   11.9975   -8.7929    2.3259 C   0  0  0  0  0  0  0  0  0  0  0  0
   13.1528   -8.5335    1.5842 C   0  0  0  0  0  0  0  0  0  0  0  0
   13.1326   -8.6508    0.1952 C   0  0  0  0  0  0  0  0  0  0  0  0
   14.3746   -8.3717   -0.5984 C   0  0  0  0  0  0  0  0  0  0  0  0
   14.3469   -8.0117   -1.8695 N   0  0  0  0  0  0  0  0  0  0  0  0
   15.6495   -7.8341   -2.2967 N   0  0  0  0  0  0  0  0  0  0  0  0
   15.6852   -8.4424   -0.1508 C   0  0  0  0  0  0  0  0  0  0  0  0
   16.4360   -8.0988   -1.2459 N   0  0  0  0  0  0  0  0  0  0  0  0
   17.8723   -7.9717   -1.4752 C   0  0  2  0  0  0  0  0  0  0  0  0
   18.6128   -9.2294   -0.9901 C   0  0  1  0  0  0  0  0  0  0  0  0
   18.2247  -10.3300   -1.7266 O   0  0  0  0  0  0  0  0  0  0  0  0
   18.4278   -6.7273   -0.7622 C   0  0  1  0  0  0  0  0  0  0  0  0
   18.0594   -6.7515    0.5675 O   0  0  0  0  0  0  0  0  0  0  0  0
   19.9644   -6.6641   -0.8562 C   0  0  1  0  0  0  0  0  0  0  0  0
   20.4848   -5.5093   -0.0527 C   0  0  0  0  0  0  0  0  0  0  0  0
   21.8221   -5.3181   -0.3349 O   0  0  0  0  0  0  0  0  0  0  0  0
   20.5330   -7.8771   -0.3539 O   0  0  0  0  0  0  0  0  0  0  0  0
   20.1408   -9.0499   -1.0735 C   0  0  1  0  0  0  0  0  0  0  0  0
   20.9643  -10.4642   -0.3736 S   0  0  0  0  0  0  0  0  0  0  0  0
   22.6578  -10.0777   -0.7625 C   0  0  0  0  0  0  0  0  0  0  0  0
   23.4416   -9.3885    0.1552 C   0  0  0  0  0  0  0  0  0  0  0  0
   24.7639   -9.0867   -0.1485 C   0  0  0  0  0  0  0  0  0  0  0  0
   25.3023   -9.4741   -1.3698 C   0  0  0  0  0  0  0  0  0  0  0  0
   24.5184  -10.1634   -2.2875 C   0  0  0  0  0  0  0  0  0  0  0  0
   23.1962  -10.4652   -1.9838 C   0  0  0  0  0  0  0  0  0  0  0  0
   16.1370   -8.6931    0.7999 H   0  0  0  0  0  0  0  0  0  0  0  0
   18.0004   -7.8640   -2.5546 H   0  0  0  0  0  0  0  0  0  0  0  0
   18.3359   -9.4423    0.0438 H   0  0  0  0  0  0  0  0  0  0  0  0
   18.4193  -10.2732   -2.7059 H   0  0  0  0  0  0  0  0  0  0  0  0
   17.9896   -5.8210   -1.1827 H   0  0  0  0  0  0  0  0  0  0  0  0
   17.4974   -5.9795    0.8644 H   0  0  0  0  0  0  0  0  0  0  0  0
   20.2855   -6.4938   -1.8862 H   0  0  0  0  0  0  0  0  0  0  0  0
   19.9271   -4.6083   -0.3081 H   0  0  0  0  0  0  0  0  0  0  0  0
   20.3645   -5.7222    1.0095 H   0  0  0  0  0  0  0  0  0  0  0  0
   22.2085   -5.9552   -1.0018 H   0  0  0  0  0  0  0  0  0  0  0  0
   20.4696   -8.9836   -2.1130 H   0  0  0  0  0  0  0  0  0  0  0  0
   23.0225   -9.0868    1.1060 H   0  0  0  0  0  0  0  0  0  0  0  0
   25.3742   -8.5500    0.5660 H   0  0  0  0  0  0  0  0  0  0  0  0
   24.9376  -10.4650   -3.2384 H   0  0  0  0  0  0  0  0  0  0  0  0
   22.5859  -11.0018   -2.6983 H   0  0  0  0  0  0  0  0  0  0  0  0
    9.6618   -9.6533   -0.3554 F   0  0  0  0  0  0  0  0  0  0  0  0
   11.9502   -9.1381   -1.8052 F   0  0  0  0  0  0  0  0  0  0  0  0
   12.0184   -8.6786    3.6755 F   0  0  0  0  0  0  0  0  0  0  0  0
   14.2963   -8.1677    2.2076 F   0  0  0  0  0  0  0  0  0  0  0  0
   26.7293   -9.1484   -1.6975 C   0  0  0  0  0  0  0  0  0  0  0  0
   26.9702   -9.5291   -2.6901 H   0  0  0  0  0  0  0  0  0  0  0  0
   27.3861   -9.6119   -0.9613 H   0  0  0  0  0  0  0  0  0  0  0  0
   26.8687   -8.0675   -1.6793 H   0  0  0  0  0  0  0  0  0  0  0  0
    9.6921   -9.4239    2.3936 O   0  0  0  0  0  0  0  0  0  0  0  0
    9.8738   -9.2986    3.3279 H   0  0  0  0  0  0  0  0  0  0  0  0
  1  2  2  0
  1  3  1  0
  1 44  1  0
  2  6  1  0
  2 45  1  0
  3  4  2  0
  3 52  1  0
  4  5  1  0
  4 46  1  0
  5  6  2  0
  5 47  1  0
  6  7  1  0
  7  8  1  0
  7 10  2  0
  8  9  2  0
  9 11  1  0
 10 11  1  0
 10 29  1  0
 11 12  1  0
 12 13  1  0
 12 15  1  0
 12 30  1  6
 13 14  1  0
 13 21  1  0
 13 31  1  1
 14 32  1  0
 15 16  1  0
 15 17  1  0
 15 33  1  6
 16 34  1  0
 17 18  1  0
 17 20  1  0
 17 35  1  6
 18 19  1  0
 18 36  1  0
 18 37  1  0
 19 38  1  0
 20 21  1  0
 21 22  1  0
 21 39  1  6
 22 23  1  0
 23 24  2  0
 23 28  1  0
 24 25  1  0
 24 40  1  0
 25 26  2  0
 25 41  1  0
 26 27  1  0
 26 48  1  0
 27 28  2  0
 27 42  1  0
 28 43  1  0
 48 49  1  0
 48 50  1  0
 48 51  1  0
 52 53  1  0
M  END
>  <i_m_Source_File_Index>  (1) 
1

>  <b_m_subgroup_collapsed>  (1) 
0

>  <r_exp_dg>  (1) 
-6.32775

>  <s_m_Source_File>  (1) 
galectin3_extra_ligands.sdf

>  <s_m_Source_Path>  (1) 
/efs/home/chaya/odyssey/projects/openfe-benchmark/Galectin

>  <s_m_entry_id>  (1) 
7

>  <s_m_entry_name>  (1) 
galectin3_extra_ligands.1

>  <s_m_subgroup_title>  (1) 
galectin3_extra_ligands

>  <s_m_subgroupid>  (1) 
galectin3_extra_ligands

>  <experimental dG reference units>  (1) 
kcal/mol

>  <experimental dG reference field>  (1) 
r_exp_dg

>  <kJ/mol experimental dG>  (1) 
-26.475306

>  <kcal/mol experimental dG>  (1) 
-6.32775

$$$$
18b
     RDKit          3D

 52 55  0  0  1  0  0  0  0  0999 V2000
   10.8011   -9.2877    0.2796 C   0  0  0  0  0  0  0  0  0  0  0  0
   11.9594   -9.0271   -0.4571 C   0  0  0  0  0  0  0  0  0  0  0  0
   10.8214   -9.1701    1.6720 C   0  0  0  0  0  0  0  0  0  0  0  0
   11.9975   -8.7929    2.3259 C   0  0  0  0  0  0  0  0  0  0  0  0
   13.1528   -8.5335    1.5842 C   0  0  0  0  0  0  0  0  0  0  0  0
   13.1326   -8.6508    0.1952 C   0  0  0  0  0  0  0  0  0  0  0  0
   14.3746   -8.3717   -0.5984 C   0  0  0  0  0  0  0  0  0  0  0  0
   14.3469   -8.0117   -1.8695 N   0  0  0  0  0  0  0  0  0  0  0  0
   15.6495   -7.8341   -2.2967 N   0  0  0  0  0  0  0  0  0  0  0  0
   15.6852   -8.4424   -0.1508 C   0  0  0  0  0  0  0  0  0  0  0  0
   16.4360   -8.0988   -1.2459 N   0  0  0  0  0  0  0  0  0  0  0  0
   17.8723   -7.9717   -1.4752 C   0  0  2  0  0  0  0  0  0  0  0  0
   18.6128   -9.2294   -0.9901 C   0  0  1  0  0  0  0  0  0  0  0  0
   18.2247  -10.3300   -1.7266 O   0  0  0  0  0  0  0  0  0  0  0  0
   18.4278   -6.7273   -0.7622 C   0  0  1  0  0  0  0  0  0  0  0  0
   18.0594   -6.7515    0.5675 O   0  0  0  0  0  0  0  0  0  0  0  0
   19.9644   -6.6641   -0.8562 C   0  0  1  0  0  0  0  0  0  0  0  0
   20.4848   -5.5093   -0.0527 C   0  0  0  0  0  0  0  0  0  0  0  0
   21.8221   -5.3181   -0.3349 O   0  0  0  0  0  0  0  0  0  0  0  0
   20.5330   -7.8771   -0.3539 O   0  0  0  0  0  0  0  0  0  0  0  0
   20.1408   -9.0499   -1.0735 C   0  0  1  0  0  0  0  0  0  0  0  0
   20.9643  -10.4642   -0.3736 S   0  0  0  0  0  0  0  0  0  0  0  0
   22.6578  -10.0777   -0.7625 C   0  0  0  0  0  0  0  0  0  0  0  0
   23.4416   -9.3885    0.1552 C   0  0  0  0  0  0  0  0  0  0  0  0
   24.7639   -9.0867   -0.1485 C   0  0  0  0  0  0  0  0  0  0  0  0
   25.3023   -9.4741   -1.3698 C   0  0  0  0  0  0  0  0  0  0  0  0
   24.5184  -10.1634   -2.2875 C   0  0  0  0  0  0  0  0  0  0  0  0
   23.1962  -10.4652   -1.9838 C   0  0  0  0  0  0  0  0  0  0  0  0
   16.1370   -8.6931    0.7999 H   0  0  0  0  0  0  0  0  0  0  0  0
   18.0004   -7.8640   -2.5546 H   0  0  0  0  0  0  0  0  0  0  0  0
   18.3359   -9.4423    0.0438 H   0  0  0  0  0  0  0  0  0  0  0  0
   18.4193  -10.2732   -2.7059 H   0  0  0  0  0  0  0  0  0  0  0  0
   17.9896   -5.8210   -1.1827 H   0  0  0  0  0  0  0  0  0  0  0  0
   17.4974   -5.9795    0.8644 H   0  0  0  0  0  0  0  0  0  0  0  0
   20.2855   -6.4938   -1.8862 H   0  0  0  0  0  0  0  0  0  0  0  0
   19.9271   -4.6083   -0.3081 H   0  0  0  0  0  0  0  0  0  0  0  0
   20.3645   -5.7222    1.0095 H   0  0  0  0  0  0  0  0  0  0  0  0
   22.2085   -5.9552   -1.0018 H   0  0  0  0  0  0  0  0  0  0  0  0
   20.4696   -8.9836   -2.1130 H   0  0  0  0  0  0  0  0  0  0  0  0
   23.0225   -9.0868    1.1060 H   0  0  0  0  0  0  0  0  0  0  0  0
   25.3742   -8.5500    0.5660 H   0  0  0  0  0  0  0  0  0  0  0  0
   24.9376  -10.4650   -3.2384 H   0  0  0  0  0  0  0  0  0  0  0  0
   22.5859  -11.0018   -2.6983 H   0  0  0  0  0  0  0  0  0  0  0  0
    9.6618   -9.6533   -0.3554 F   0  0  0  0  0  0  0  0  0  0  0  0
   11.9502   -9.1381   -1.8052 F   0  0  0  0  0  0  0  0  0  0  0  0
   12.0184   -8.6786    3.6755 F   0  0  0  0  0  0  0  0  0  0  0  0
   14.2963   -8.1677    2.2076 F   0  0  0  0  0  0  0  0  0  0  0  0
   26.7293   -9.1484   -1.6975 C   0  0  0  0  0  0  0  0  0  0  0  0
   26.9702   -9.5291   -2.6901 H   0  0  0  0  0  0  0  0  0  0  0  0
   27.3861   -9.6119   -0.9613 H   0  0  0  0  0  0  0  0  0  0  0  0
   26.8687   -8.0675   -1.6793 H   0  0  0  0  0  0  0  0  0  0  0  0
    9.6998   -9.4222    2.3887 F   0  0  0  0  0  0  0  0  0  0  0  0
  1  2  2  0
  1  3  1  0
  1 44  1  0
  2  6  1  0
  2 45  1  0
  3  4  2  0
  3 52  1  0
  4  5  1  0
  4 46  1  0
  5  6  2  0
  5 47  1  0
  6  7  1  0
  7  8  1  0
  7 10  2  0
  8  9  2  0
  9 11  1  0
 10 11  1  0
 10 29  1  0
 11 12  1  0
 12 13  1  0
 12 15  1  0
 12 30  1  6
 13 14  1  0
 13 21  1  0
 13 31  1  1
 14 32  1  0
 15 16  1  0
 15 17  1  0
 15 33  1  6
 16 34  1  0
 17 18  1  0
 17 20  1  0
 17 35  1  6
 18 19  1  0
 18 36  1  0
 18 37  1  0
 19 38  1  0
 20 21  1  0
 21 22  1  0
 21 39  1  6
 22 23  1  0
 23 24  2  0
 23 28  1  0
 24 25  1  0
 24 40  1  0
 25 26  2  0
 25 41  1  0
 26 27  1  0
 26 48  1  0
 27 28  2  0
 27 42  1  0
 28 43  1  0
 48 49  1  0
 48 50  1  0
 48 51  1  0
M  END
>  <i_m_Source_File_Index>  (2) 
2

>  <b_m_subgroup_collapsed>  (2) 
0

>  <r_exp_dg>  (2) 
-7.46041

>  <s_m_Source_File>  (2) 
galectin3_extra_ligands.sdf

>  <s_m_Source_Path>  (2) 
/efs/home/chaya/odyssey/projects/openfe-benchmark/Galectin

>  <s_m_entry_id>  (2) 
8

>  <s_m_entry_name>  (2) 
galectin3_extra_ligands.2

>  <s_m_subgroup_title>  (2) 
galectin3_extra_ligands

>  <s_m_subgroupid>  (2) 
galectin3_extra_ligands

>  <experimental dG reference units>  (2) 
kcal/mol

>  <experimental dG reference field>  (2) 
r_exp_dg

>  <kJ/mol experimental dG>  (2) 
-31.214355440000002

>  <kcal/mol experimental dG>  (2) 
-7.46041

$$$$
18d
     RDKit          3D

 54 57  0  0  1  0  0  0  0  0999 V2000
   10.8011   -9.2877    0.2796 C   0  0  0  0  0  0  0  0  0  0  0  0
   11.9594   -9.0271   -0.4571 C   0  0  0  0  0  0  0  0  0  0  0  0
   10.8214   -9.1701    1.6720 C   0  0  0  0  0  0  0  0  0  0  0  0
   11.9975   -8.7929    2.3259 C   0  0  0  0  0  0  0  0  0  0  0  0
   13.1528   -8.5335    1.5842 C   0  0  0  0  0  0  0  0  0  0  0  0
   13.1326   -8.6508    0.1952 C   0  0  0  0  0  0  0  0  0  0  0  0
   14.3746   -8.3717   -0.5984 C   0  0  0  0  0  0  0  0  0  0  0  0
   14.3469   -8.0117   -1.8695 N   0  0  0  0  0  0  0  0  0  0  0  0
   15.6495   -7.8341   -2.2967 N   0  0  0  0  0  0  0  0  0  0  0  0
   15.6852   -8.4424   -0.1508 C   0  0  0  0  0  0  0  0  0  0  0  0
   16.4360   -8.0988   -1.2459 N   0  0  0  0  0  0  0  0  0  0  0  0
   17.8723   -7.9717   -1.4752 C   0  0  2  0  0  0  0  0  0  0  0  0
   18.6128   -9.2294   -0.9901 C   0  0  1  0  0  0  0  0  0  0  0  0
   18.2247  -10.3300   -1.7266 O   0  0  0  0  0  0  0  0  0  0  0  0
   18.4278   -6.7273   -0.7622 C   0  0  1  0  0  0  0  0  0  0  0  0
   18.0594   -6.7515    0.5675 O   0  0  0  0  0  0  0  0  0  0  0  0
   19.9644   -6.6641   -0.8562 C   0  0  1  0  0  0  0  0  0  0  0  0
   20.4848   -5.5093   -0.0527 C   0  0  0  0  0  0  0  0  0  0  0  0
   21.8221   -5.3181   -0.3349 O   0  0  0  0  0  0  0  0  0  0  0  0
   20.5330   -7.8771   -0.3539 O   0  0  0  0  0  0  0  0  0  0  0  0
   20.1408   -9.0499   -1.0735 C   0  0  1  0  0  0  0  0  0  0  0  0
   20.9643  -10.4642   -0.3736 S   0  0  0  0  0  0  0  0  0  0  0  0
   22.6578  -10.0777   -0.7625 C   0  0  0  0  0  0  0  0  0  0  0  0
   23.4416   -9.3885    0.1552 C   0  0  0  0  0  0  0  0  0  0  0  0
   24.7639   -9.0867   -0.1485 C   0  0  0  0  0  0  0  0  0  0  0  0
   25.3023   -9.4741   -1.3698 C   0  0  0  0  0  0  0  0  0  0  0  0
   24.5184  -10.1634   -2.2875 C   0  0  0  0  0  0  0  0  0  0  0  0
   23.1962  -10.4652   -1.9838 C   0  0  0  0  0  0  0  0  0  0  0  0
   16.1370   -8.6931    0.7999 H   0  0  0  0  0  0  0  0  0  0  0  0
   18.0004   -7.8640   -2.5546 H   0  0  0  0  0  0  0  0  0  0  0  0
   18.3359   -9.4423    0.0438 H   0  0  0  0  0  0  0  0  0  0  0  0
   18.4193  -10.2732   -2.7059 H   0  0  0  0  0  0  0  0  0  0  0  0
   17.9896   -5.8210   -1.1827 H   0  0  0  0  0  0  0  0  0  0  0  0
   17.4974   -5.9795    0.8644 H   0  0  0  0  0  0  0  0  0  0  0  0
   20.2855   -6.4938   -1.8862 H   0  0  0  0  0  0  0  0  0  0  0  0
   19.9271   -4.6083   -0.3081 H   0  0  0  0  0  0  0  0  0  0  0  0
   20.3645   -5.7222    1.0095 H   0  0  0  0  0  0  0  0  0  0  0  0
   22.2085   -5.9552   -1.0018 H   0  0  0  0  0  0  0  0  0  0  0  0
   20.4696   -8.9836   -2.1130 H   0  0  0  0  0  0  0  0  0  0  0  0
   23.0225   -9.0868    1.1060 H   0  0  0  0  0  0  0  0  0  0  0  0
   25.3742   -8.5500    0.5660 H   0  0  0  0  0  0  0  0  0  0  0  0
   24.9376  -10.4650   -3.2384 H   0  0  0  0  0  0  0  0  0  0  0  0
   22.5859  -11.0018   -2.6983 H   0  0  0  0  0  0  0  0  0  0  0  0
    9.6618   -9.6533   -0.3554 F   0  0  0  0  0  0  0  0  0  0  0  0
   11.9502   -9.1381   -1.8052 F   0  0  0  0  0  0  0  0  0  0  0  0
   12.0184   -8.6786    3.6755 F   0  0  0  0  0  0  0  0  0  0  0  0
   14.2963   -8.1677    2.2076 F   0  0  0  0  0  0  0  0  0  0  0  0
   26.7293   -9.1484   -1.6975 C   0  0  0  0  0  0  0  0  0  0  0  0
   26.9702   -9.5291   -2.6901 H   0  0  0  0  0  0  0  0  0  0  0  0
   27.3861   -9.6119   -0.9613 H   0  0  0  0  0  0  0  0  0  0  0  0
   26.8687   -8.0675   -1.6793 H   0  0  0  0  0  0  0  0  0  0  0  0
    9.5629   -9.4529    2.4761 N   0  0  0  0  0  0  0  0  0  0  0  0
    9.5769   -9.3681    3.4825 H   0  0  0  0  0  0  0  0  0  0  0  0
    8.7126   -9.7256    2.0041 H   0  0  0  0  0  0  0  0  0  0  0  0
  1  2  2  0
  1  3  1  0
  1 44  1  0
  2  6  1  0
  2 45  1  0
  3  4  2  0
  3 52  1  0
  4  5  1  0
  4 46  1  0
  5  6  2  0
  5 47  1  0
  6  7  1  0
  7  8  1  0
  7 10  2  0
  8  9  2  0
  9 11  1  0
 10 11  1  0
 10 29  1  0
 11 12  1  0
 12 13  1  0
 12 15  1  0
 12 30  1  6
 13 14  1  0
 13 21  1  0
 13 31  1  1
 14 32  1  0
 15 16  1  0
 15 17  1  0
 15 33  1  6
 16 34  1  0
 17 18  1  0
 17 20  1  0
 17 35  1  6
 18 19  1  0
 18 36  1  0
 18 37  1  0
 19 38  1  0
 20 21  1  0
 21 22  1  0
 21 39  1  6
 22 23  1  0
 23 24  2  0
 23 28  1  0
 24 25  1  0
 24 40  1  0
 25 26  2  0
 25 41  1  0
 26 27  1  0
 26 48  1  0
 27 28  2  0
 27 42  1  0
 28 43  1  0
 48 49  1  0
 48 50  1  0
 48 51  1  0
 52 53  1  0
 52 54  1  0
M  END
>  <i_m_Source_File_Index>  (3) 
3

>  <b_m_subgroup_collapsed>  (3) 
0

>  <r_exp_dg>  (3) 
-6.76476

>  <s_m_Source_File>  (3) 
galectin3_extra_ligands.sdf

>  <s_m_Source_Path>  (3) 
/efs/home/chaya/odyssey/projects/openfe-benchmark/Galectin

>  <s_m_entry_id>  (3) 
9

>  <s_m_entry_name>  (3) 
galectin3_extra_ligands.3

>  <s_m_subgroup_title>  (3) 
galectin3_extra_ligands

>  <s_m_subgroupid>  (3) 
galectin3_extra_ligands

>  <experimental dG reference units>  (3) 
kcal/mol

>  <experimental dG reference field>  (3) 
r_exp_dg

>  <kJ/mol experimental dG>  (3) 
-28.30375584

>  <kcal/mol experimental dG>  (3) 
-6.76476

$$$$
18e
     RDKit          3D

 56 59  0  0  1  0  0  0  0  0999 V2000
   10.8011   -9.2877    0.2796 C   0  0  0  0  0  0  0  0  0  0  0  0
   11.9594   -9.0271   -0.4571 C   0  0  0  0  0  0  0  0  0  0  0  0
   10.8214   -9.1701    1.6720 C   0  0  0  0  0  0  0  0  0  0  0  0
   11.9975   -8.7929    2.3259 C   0  0  0  0  0  0  0  0  0  0  0  0
   13.1528   -8.5335    1.5842 C   0  0  0  0  0  0  0  0  0  0  0  0
   13.1326   -8.6508    0.1952 C   0  0  0  0  0  0  0  0  0  0  0  0
   14.3746   -8.3717   -0.5984 C   0  0  0  0  0  0  0  0  0  0  0  0
   14.3469   -8.0117   -1.8695 N   0  0  0  0  0  0  0  0  0  0  0  0
   15.6495   -7.8341   -2.2967 N   0  0  0  0  0  0  0  0  0  0  0  0
   15.6852   -8.4424   -0.1508 C   0  0  0  0  0  0  0  0  0  0  0  0
   16.4360   -8.0988   -1.2459 N   0  0  0  0  0  0  0  0  0  0  0  0
   17.8723   -7.9717   -1.4752 C   0  0  2  0  0  0  0  0  0  0  0  0
   18.6128   -9.2294   -0.9901 C   0  0  1  0  0  0  0  0  0  0  0  0
   18.2247  -10.3300   -1.7266 O   0  0  0  0  0  0  0  0  0  0  0  0
   18.4278   -6.7273   -0.7622 C   0  0  1  0  0  0  0  0  0  0  0  0
   18.0594   -6.7515    0.5675 O   0  0  0  0  0  0  0  0  0  0  0  0
   19.9644   -6.6641   -0.8562 C   0  0  1  0  0  0  0  0  0  0  0  0
   20.4848   -5.5093   -0.0527 C   0  0  0  0  0  0  0  0  0  0  0  0
   21.8221   -5.3181   -0.3349 O   0  0  0  0  0  0  0  0  0  0  0  0
   20.5330   -7.8771   -0.3539 O   0  0  0  0  0  0  0  0  0  0  0  0
   20.1408   -9.0499   -1.0735 C   0  0  1  0  0  0  0  0  0  0  0  0
   20.9643  -10.4642   -0.3736 S   0  0  0  0  0  0  0  0  0  0  0  0
   22.6578  -10.0777   -0.7625 C   0  0  0  0  0  0  0  0  0  0  0  0
   23.4416   -9.3885    0.1552 C   0  0  0  0  0  0  0  0  0  0  0  0
   24.7639   -9.0867   -0.1485 C   0  0  0  0  0  0  0  0  0  0  0  0
   25.3023   -9.4741   -1.3698 C   0  0  0  0  0  0  0  0  0  0  0  0
   24.5184  -10.1634   -2.2875 C   0  0  0  0  0  0  0  0  0  0  0  0
   23.1962  -10.4652   -1.9838 C   0  0  0  0  0  0  0  0  0  0  0  0
   16.1370   -8.6931    0.7999 H   0  0  0  0  0  0  0  0  0  0  0  0
   18.0004   -7.8640   -2.5546 H   0  0  0  0  0  0  0  0  0  0  0  0
   18.3359   -9.4423    0.0438 H   0  0  0  0  0  0  0  0  0  0  0  0
   18.4193  -10.2732   -2.7059 H   0  0  0  0  0  0  0  0  0  0  0  0
   17.9896   -5.8210   -1.1827 H   0  0  0  0  0  0  0  0  0  0  0  0
   17.4974   -5.9795    0.8644 H   0  0  0  0  0  0  0  0  0  0  0  0
   20.2855   -6.4938   -1.8862 H   0  0  0  0  0  0  0  0  0  0  0  0
   19.9271   -4.6083   -0.3081 H   0  0  0  0  0  0  0  0  0  0  0  0
   20.3645   -5.7222    1.0095 H   0  0  0  0  0  0  0  0  0  0  0  0
   22.2085   -5.9552   -1.0018 H   0  0  0  0  0  0  0  0  0  0  0  0
   20.4696   -8.9836   -2.1130 H   0  0  0  0  0  0  0  0  0  0  0  0
   23.0225   -9.0868    1.1060 H   0  0  0  0  0  0  0  0  0  0  0  0
   25.3742   -8.5500    0.5660 H   0  0  0  0  0  0  0  0  0  0  0  0
   24.9376  -10.4650   -3.2384 H   0  0  0  0  0  0  0  0  0  0  0  0
   22.5859  -11.0018   -2.6983 H   0  0  0  0  0  0  0  0  0  0  0  0
    9.6618   -9.6533   -0.3554 F   0  0  0  0  0  0  0  0  0  0  0  0
   11.9502   -9.1381   -1.8052 F   0  0  0  0  0  0  0  0  0  0  0  0
   12.0184   -8.6786    3.6755 F   0  0  0  0  0  0  0  0  0  0  0  0
   14.2963   -8.1677    2.2076 F   0  0  0  0  0  0  0  0  0  0  0  0
   26.7293   -9.1484   -1.6975 C   0  0  0  0  0  0  0  0  0  0  0  0
   26.9702   -9.5291   -2.6901 H   0  0  0  0  0  0  0  0  0  0  0  0
   27.3861   -9.6119   -0.9613 H   0  0  0  0  0  0  0  0  0  0  0  0
   26.8687   -8.0675   -1.6793 H   0  0  0  0  0  0  0  0  0  0  0  0
    9.6921   -9.4239    2.3936 O   0  0  0  0  0  0  0  0  0  0  0  0
    8.6412  -10.0014    1.4924 C   0  0  0  0  0  0  0  0  0  0  0  0
    7.7388  -10.2042    2.0690 H   0  0  0  0  0  0  0  0  0  0  0  0
    8.4123   -9.2907    0.6983 H   0  0  0  0  0  0  0  0  0  0  0  0
    9.0079  -10.9296    1.0540 H   0  0  0  0  0  0  0  0  0  0  0  0
  1  2  2  0
  1  3  1  0
  1 44  1  0
  2  6  1  0
  2 45  1  0
  3  4  2  0
  3 52  1  0
  4  5  1  0
  4 46  1  0
  5  6  2  0
  5 47  1  0
  6  7  1  0
  7  8  1  0
  7 10  2  0
  8  9  2  0
  9 11  1  0
 10 11  1  0
 10 29  1  0
 11 12  1  0
 12 13  1  0
 12 15  1  0
 12 30  1  6
 13 14  1  0
 13 21  1  0
 13 31  1  1
 14 32  1  0
 15 16  1  0
 15 17  1  0
 15 33  1  6
 16 34  1  0
 17 18  1  0
 17 20  1  0
 17 35  1  6
 18 19  1  0
 18 36  1  0
 18 37  1  0
 19 38  1  0
 20 21  1  0
 21 22  1  0
 21 39  1  6
 22 23  1  0
 23 24  2  0
 23 28  1  0
 24 25  1  0
 24 40  1  0
 25 26  2  0
 25 41  1  0
 26 27  1  0
 26 48  1  0
 27 28  2  0
 27 42  1  0
 28 43  1  0
 48 49  1  0
 48 50  1  0
 48 51  1  0
 52 53  1  0
 53 54  1  0
 53 55  1  0
 53 56  1  0
M  END
>  <i_m_Source_File_Index>  (4) 
4

>  <b_m_subgroup_collapsed>  (4) 
0

>  <r_exp_dg>  (4) 
-6.47298

>  <s_m_Source_File>  (4) 
galectin3_extra_ligands.sdf

>  <s_m_Source_Path>  (4) 
/efs/home/chaya/odyssey/projects/openfe-benchmark/Galectin

>  <s_m_entry_id>  (4) 
10

>  <s_m_entry_name>  (4) 
galectin3_extra_ligands.4

>  <s_m_subgroup_title>  (4) 
galectin3_extra_ligands

>  <s_m_subgroupid>  (4) 
galectin3_extra_ligands

>  <experimental dG reference units>  (4) 
kcal/mol

>  <experimental dG reference field>  (4) 
r_exp_dg

>  <kJ/mol experimental dG>  (4) 
-27.08294832

>  <kcal/mol experimental dG>  (4) 
-6.47298

$$$$
18f
     RDKit          3D

 59 62  0  0  1  0  0  0  0  0999 V2000
   10.8011   -9.2877    0.2796 C   0  0  0  0  0  0  0  0  0  0  0  0
   11.9594   -9.0271   -0.4571 C   0  0  0  0  0  0  0  0  0  0  0  0
   10.8214   -9.1701    1.6720 C   0  0  0  0  0  0  0  0  0  0  0  0
   11.9975   -8.7929    2.3259 C   0  0  0  0  0  0  0  0  0  0  0  0
   13.1528   -8.5335    1.5842 C   0  0  0  0  0  0  0  0  0  0  0  0
   13.1326   -8.6508    0.1952 C   0  0  0  0  0  0  0  0  0  0  0  0
   14.3746   -8.3717   -0.5984 C   0  0  0  0  0  0  0  0  0  0  0  0
   14.3469   -8.0117   -1.8695 N   0  0  0  0  0  0  0  0  0  0  0  0
   15.6495   -7.8341   -2.2967 N   0  0  0  0  0  0  0  0  0  0  0  0
   15.6852   -8.4424   -0.1508 C   0  0  0  0  0  0  0  0  0  0  0  0
   16.4360   -8.0988   -1.2459 N   0  0  0  0  0  0  0  0  0  0  0  0
   17.8723   -7.9717   -1.4752 C   0  0  2  0  0  0  0  0  0  0  0  0
   18.6128   -9.2294   -0.9901 C   0  0  1  0  0  0  0  0  0  0  0  0
   18.2247  -10.3300   -1.7266 O   0  0  0  0  0  0  0  0  0  0  0  0
   18.4278   -6.7273   -0.7622 C   0  0  1  0  0  0  0  0  0  0  0  0
   18.0594   -6.7515    0.5675 O   0  0  0  0  0  0  0  0  0  0  0  0
   19.9644   -6.6641   -0.8562 C   0  0  1  0  0  0  0  0  0  0  0  0
   20.4848   -5.5093   -0.0527 C   0  0  0  0  0  0  0  0  0  0  0  0
   21.8221   -5.3181   -0.3349 O   0  0  0  0  0  0  0  0  0  0  0  0
   20.5330   -7.8771   -0.3539 O   0  0  0  0  0  0  0  0  0  0  0  0
   20.1408   -9.0499   -1.0735 C   0  0  1  0  0  0  0  0  0  0  0  0
   20.9643  -10.4642   -0.3736 S   0  0  0  0  0  0  0  0  0  0  0  0
   22.6578  -10.0777   -0.7625 C   0  0  0  0  0  0  0  0  0  0  0  0
   23.4416   -9.3885    0.1552 C   0  0  0  0  0  0  0  0  0  0  0  0
   24.7639   -9.0867   -0.1485 C   0  0  0  0  0  0  0  0  0  0  0  0
   25.3023   -9.4741   -1.3698 C   0  0  0  0  0  0  0  0  0  0  0  0
   24.5184  -10.1634   -2.2875 C   0  0  0  0  0  0  0  0  0  0  0  0
   23.1962  -10.4652   -1.9838 C   0  0  0  0  0  0  0  0  0  0  0  0
   16.1370   -8.6931    0.7999 H   0  0  0  0  0  0  0  0  0  0  0  0
   18.0004   -7.8640   -2.5546 H   0  0  0  0  0  0  0  0  0  0  0  0
   18.3359   -9.4423    0.0438 H   0  0  0  0  0  0  0  0  0  0  0  0
   18.4193  -10.2732   -2.7059 H   0  0  0  0  0  0  0  0  0  0  0  0
   17.9896   -5.8210   -1.1827 H   0  0  0  0  0  0  0  0  0  0  0  0
   17.4974   -5.9795    0.8644 H   0  0  0  0  0  0  0  0  0  0  0  0
   20.2855   -6.4938   -1.8862 H   0  0  0  0  0  0  0  0  0  0  0  0
   19.9271   -4.6083   -0.3081 H   0  0  0  0  0  0  0  0  0  0  0  0
   20.3645   -5.7222    1.0095 H   0  0  0  0  0  0  0  0  0  0  0  0
   22.2085   -5.9552   -1.0018 H   0  0  0  0  0  0  0  0  0  0  0  0
   20.4696   -8.9836   -2.1130 H   0  0  0  0  0  0  0  0  0  0  0  0
   23.0225   -9.0868    1.1060 H   0  0  0  0  0  0  0  0  0  0  0  0
   25.3742   -8.5500    0.5660 H   0  0  0  0  0  0  0  0  0  0  0  0
   24.9376  -10.4650   -3.2384 H   0  0  0  0  0  0  0  0  0  0  0  0
   22.5859  -11.0018   -2.6983 H   0  0  0  0  0  0  0  0  0  0  0  0
    9.6618   -9.6533   -0.3554 F   0  0  0  0  0  0  0  0  0  0  0  0
   11.9502   -9.1381   -1.8052 F   0  0  0  0  0  0  0  0  0  0  0  0
   12.0184   -8.6786    3.6755 F   0  0  0  0  0  0  0  0  0  0  0  0
   14.2963   -8.1677    2.2076 F   0  0  0  0  0  0  0  0  0  0  0  0
   26.7293   -9.1484   -1.6975 C   0  0  0  0  0  0  0  0  0  0  0  0
   26.9702   -9.5291   -2.6901 H   0  0  0  0  0  0  0  0  0  0  0  0
   27.3861   -9.6119   -0.9613 H   0  0  0  0  0  0  0  0  0  0  0  0
   26.8687   -8.0675   -1.6793 H   0  0  0  0  0  0  0  0  0  0  0  0
    9.6921   -9.4239    2.3936 O   0  0  0  0  0  0  0  0  0  0  0  0
    8.6412  -10.0014    1.4924 C   0  0  0  0  0  0  0  0  0  0  0  0
    7.9881  -11.2164    2.1770 C   0  0  0  0  0  0  0  0  0  0  0  0
    7.8810   -9.2470    1.2898 H   0  0  0  0  0  0  0  0  0  0  0  0
    9.0991  -10.3161    0.5546 H   0  0  0  0  0  0  0  0  0  0  0  0
    7.2244  -11.6361    1.5221 H   0  0  0  0  0  0  0  0  0  0  0  0
    8.7474  -11.9717    2.3794 H   0  0  0  0  0  0  0  0  0  0  0  0
    7.5293  -10.9027    3.1147 H   0  0  0  0  0  0  0  0  0  0  0  0
  1  2  2  0
  1  3  1  0
  1 44  1  0
  2  6  1  0
  2 45  1  0
  3  4  2  0
  3 52  1  0
  4  5  1  0
  4 46  1  0
  5  6  2  0
  5 47  1  0
  6  7  1  0
  7  8  1  0
  7 10  2  0
  8  9  2  0
  9 11  1  0
 10 11  1  0
 10 29  1  0
 11 12  1  0
 12 13  1  0
 12 15  1  0
 12 30  1  6
 13 14  1  0
 13 21  1  0
 13 31  1  1
 14 32  1  0
 15 16  1  0
 15 17  1  0
 15 33  1  6
 16 34  1  0
 17 18  1  0
 17 20  1  0
 17 35  1  6
 18 19  1  0
 18 36  1  0
 18 37  1  0
 19 38  1  0
 20 21  1  0
 21 22  1  0
 21 39  1  6
 22 23  1  0
 23 24  2  0
 23 28  1  0
 24 25  1  0
 24 40  1  0
 25 26  2  0
 25 41  1  0
 26 27  1  0
 26 48  1  0
 27 28  2  0
 27 42  1  0
 28 43  1  0
 48 49  1  0
 48 50  1  0
 48 51  1  0
 52 53  1  0
 53 54  1  0
 53 55  1  0
 53 56  1  0
 54 57  1  0
 54 58  1  0
 54 59  1  0
M  END
>  <i_m_Source_File_Index>  (5) 
5

>  <b_m_subgroup_collapsed>  (5) 
0

>  <r_exp_dg>  (5) 
-5.53273

>  <s_m_Source_File>  (5) 
galectin3_extra_ligands.sdf

>  <s_m_Source_Path>  (5) 
/efs/home/chaya/odyssey/projects/openfe-benchmark/Galectin

>  <s_m_entry_id>  (5) 
11

>  <s_m_entry_name>  (5) 
galectin3_extra_ligands.5

>  <s_m_subgroup_title>  (5) 
galectin3_extra_ligands

>  <s_m_subgroupid>  (5) 
galectin3_extra_ligands

>  <experimental dG reference units>  (5) 
kcal/mol

>  <experimental dG reference field>  (5) 
r_exp_dg

>  <kJ/mol experimental dG>  (5) 
-23.14894232

>  <kcal/mol experimental dG>  (5) 
-5.53273

$$$$
18g
     RDKit          3D

 57 60  0  0  1  0  0  0  0  0999 V2000
   10.8011   -9.2877    0.2796 C   0  0  0  0  0  0  0  0  0  0  0  0
   11.9594   -9.0271   -0.4571 C   0  0  0  0  0  0  0  0  0  0  0  0
   10.8214   -9.1701    1.6720 C   0  0  0  0  0  0  0  0  0  0  0  0
   11.9975   -8.7929    2.3259 C   0  0  0  0  0  0  0  0  0  0  0  0
   13.1528   -8.5335    1.5842 C   0  0  0  0  0  0  0  0  0  0  0  0
   13.1326   -8.6508    0.1952 C   0  0  0  0  0  0  0  0  0  0  0  0
   14.3746   -8.3717   -0.5984 C   0  0  0  0  0  0  0  0  0  0  0  0
   14.3469   -8.0117   -1.8695 N   0  0  0  0  0  0  0  0  0  0  0  0
   15.6495   -7.8341   -2.2967 N   0  0  0  0  0  0  0  0  0  0  0  0
   15.6852   -8.4424   -0.1508 C   0  0  0  0  0  0  0  0  0  0  0  0
   16.4360   -8.0988   -1.2459 N   0  0  0  0  0  0  0  0  0  0  0  0
   17.8723   -7.9717   -1.4752 C   0  0  2  0  0  0  0  0  0  0  0  0
   18.6128   -9.2294   -0.9901 C   0  0  1  0  0  0  0  0  0  0  0  0
   18.2247  -10.3300   -1.7266 O   0  0  0  0  0  0  0  0  0  0  0  0
   18.4278   -6.7273   -0.7622 C   0  0  1  0  0  0  0  0  0  0  0  0
   18.0594   -6.7515    0.5675 O   0  0  0  0  0  0  0  0  0  0  0  0
   19.9644   -6.6641   -0.8562 C   0  0  1  0  0  0  0  0  0  0  0  0
   20.4848   -5.5093   -0.0527 C   0  0  0  0  0  0  0  0  0  0  0  0
   21.8221   -5.3181   -0.3349 O   0  0  0  0  0  0  0  0  0  0  0  0
   20.5330   -7.8771   -0.3539 O   0  0  0  0  0  0  0  0  0  0  0  0
   20.1408   -9.0499   -1.0735 C   0  0  1  0  0  0  0  0  0  0  0  0
   20.9643  -10.4642   -0.3736 S   0  0  0  0  0  0  0  0  0  0  0  0
   22.6578  -10.0777   -0.7625 C   0  0  0  0  0  0  0  0  0  0  0  0
   23.4416   -9.3885    0.1552 C   0  0  0  0  0  0  0  0  0  0  0  0
   24.7639   -9.0867   -0.1485 C   0  0  0  0  0  0  0  0  0  0  0  0
   25.3023   -9.4741   -1.3698 C   0  0  0  0  0  0  0  0  0  0  0  0
   24.5184  -10.1634   -2.2875 C   0  0  0  0  0  0  0  0  0  0  0  0
   23.1962  -10.4652   -1.9838 C   0  0  0  0  0  0  0  0  0  0  0  0
   16.1370   -8.6931    0.7999 H   0  0  0  0  0  0  0  0  0  0  0  0
   18.0004   -7.8640   -2.5546 H   0  0  0  0  0  0  0  0  0  0  0  0
   18.3359   -9.4423    0.0438 H   0  0  0  0  0  0  0  0  0  0  0  0
   18.4193  -10.2732   -2.7059 H   0  0  0  0  0  0  0  0  0  0  0  0
   17.9896   -5.8210   -1.1827 H   0  0  0  0  0  0  0  0  0  0  0  0
   17.4974   -5.9795    0.8644 H   0  0  0  0  0  0  0  0  0  0  0  0
   20.2855   -6.4938   -1.8862 H   0  0  0  0  0  0  0  0  0  0  0  0
   19.9271   -4.6083   -0.3081 H   0  0  0  0  0  0  0  0  0  0  0  0
   20.3645   -5.7222    1.0095 H   0  0  0  0  0  0  0  0  0  0  0  0
   22.2085   -5.9552   -1.0018 H   0  0  0  0  0  0  0  0  0  0  0  0
   20.4696   -8.9836   -2.1130 H   0  0  0  0  0  0  0  0  0  0  0  0
   23.0225   -9.0868    1.1060 H   0  0  0  0  0  0  0  0  0  0  0  0
   25.3742   -8.5500    0.5660 H   0  0  0  0  0  0  0  0  0  0  0  0
   24.9376  -10.4650   -3.2384 H   0  0  0  0  0  0  0  0  0  0  0  0
   22.5859  -11.0018   -2.6983 H   0  0  0  0  0  0  0  0  0  0  0  0
    9.6618   -9.6533   -0.3554 F   0  0  0  0  0  0  0  0  0  0  0  0
   11.9502   -9.1381   -1.8052 F   0  0  0  0  0  0  0  0  0  0  0  0
   12.0184   -8.6786    3.6755 F   0  0  0  0  0  0  0  0  0  0  0  0
   14.2963   -8.1677    2.2076 F   0  0  0  0  0  0  0  0  0  0  0  0
   26.7293   -9.1484   -1.6975 C   0  0  0  0  0  0  0  0  0  0  0  0
   26.9702   -9.5291   -2.6901 H   0  0  0  0  0  0  0  0  0  0  0  0
   27.3861   -9.6119   -0.9613 H   0  0  0  0  0  0  0  0  0  0  0  0
   26.8687   -8.0675   -1.6793 H   0  0  0  0  0  0  0  0  0  0  0  0
    9.5629   -9.4529    2.4761 N   0  0  0  0  0  0  0  0  0  0  0  0
    9.5769   -9.3681    3.4825 H   0  0  0  0  0  0  0  0  0  0  0  0
    8.2833   -9.8633    1.7658 C   0  0  0  0  0  0  0  0  0  0  0  0
    7.4941  -10.0221    2.5007 H   0  0  0  0  0  0  0  0  0  0  0  0
    7.9824   -9.0761    1.0746 H   0  0  0  0  0  0  0  0  0  0  0  0
    8.4546  -10.7864    1.2121 H   0  0  0  0  0  0  0  0  0  0  0  0
  1  2  2  0
  1  3  1  0
  1 44  1  0
  2  6  1  0
  2 45  1  0
  3  4  2  0
  3 52  1  0
  4  5  1  0
  4 46  1  0
  5  6  2  0
  5 47  1  0
  6  7  1  0
  7  8  1  0
  7 10  2  0
  8  9  2  0
  9 11  1  0
 10 11  1  0
 10 29  1  0
 11 12  1  0
 12 13  1  0
 12 15  1  0
 12 30  1  6
 13 14  1  0
 13 21  1  0
 13 31  1  1
 14 32  1  0
 15 16  1  0
 15 17  1  0
 15 33  1  6
 16 34  1  0
 17 18  1  0
 17 20  1  0
 17 35  1  6
 18 19  1  0
 18 36  1  0
 18 37  1  0
 19 38  1  0
 20 21  1  0
 21 22  1  0
 21 39  1  6
 22 23  1  0
 23 24  2  0
 23 28  1  0
 24 25  1  0
 24 40  1  0
 25 26  2  0
 25 41  1  0
 26 27  1  0
 26 48  1  0
 27 28  2  0
 27 42  1  0
 28 43  1  0
 48 49  1  0
 48 50  1  0
 48 51  1  0
 52 53  1  0
 52 54  1  0
 54 55  1  0
 54 56  1  0
 54 57  1  0
M  END
>  <i_m_Source_File_Index>  (6) 
6

>  <b_m_subgroup_collapsed>  (6) 
0

>  <r_exp_dg>  (6) 
-6.47298

>  <s_m_Source_File>  (6) 
galectin3_extra_ligands.sdf

>  <s_m_Source_Path>  (6) 
/efs/home/chaya/odyssey/projects/openfe-benchmark/Galectin

>  <s_m_entry_id>  (6) 
12

>  <s_m_entry_name>  (6) 
galectin3_extra_ligands.6

>  <s_m_subgroup_title>  (6) 
galectin3_extra_ligands

>  <s_m_subgroupid>  (6) 
galectin3_extra_ligands

>  <experimental dG reference units>  (6) 
kcal/mol

>  <experimental dG reference field>  (6) 
r_exp_dg

>  <kJ/mol experimental dG>  (6) 
-27.08294832

>  <kcal/mol experimental dG>  (6) 
-6.47298

$$$$
18h
     RDKit          3D

 60 63  0  0  1  0  0  0  0  0999 V2000
   10.8011   -9.2877    0.2796 C   0  0  0  0  0  0  0  0  0  0  0  0
   11.9594   -9.0271   -0.4571 C   0  0  0  0  0  0  0  0  0  0  0  0
   10.8214   -9.1701    1.6720 C   0  0  0  0  0  0  0  0  0  0  0  0
   11.9975   -8.7929    2.3259 C   0  0  0  0  0  0  0  0  0  0  0  0
   13.1528   -8.5335    1.5842 C   0  0  0  0  0  0  0  0  0  0  0  0
   13.1326   -8.6508    0.1952 C   0  0  0  0  0  0  0  0  0  0  0  0
   14.3746   -8.3717   -0.5984 C   0  0  0  0  0  0  0  0  0  0  0  0
   14.3469   -8.0117   -1.8695 N   0  0  0  0  0  0  0  0  0  0  0  0
   15.6495   -7.8341   -2.2967 N   0  0  0  0  0  0  0  0  0  0  0  0
   15.6852   -8.4424   -0.1508 C   0  0  0  0  0  0  0  0  0  0  0  0
   16.4360   -8.0988   -1.2459 N   0  0  0  0  0  0  0  0  0  0  0  0
   17.8723   -7.9717   -1.4752 C   0  0  2  0  0  0  0  0  0  0  0  0
   18.6128   -9.2294   -0.9901 C   0  0  1  0  0  0  0  0  0  0  0  0
   18.2247  -10.3300   -1.7266 O   0  0  0  0  0  0  0  0  0  0  0  0
   18.4278   -6.7273   -0.7622 C   0  0  1  0  0  0  0  0  0  0  0  0
   18.0594   -6.7515    0.5675 O   0  0  0  0  0  0  0  0  0  0  0  0
   19.9644   -6.6641   -0.8562 C   0  0  1  0  0  0  0  0  0  0  0  0
   20.4848   -5.5093   -0.0527 C   0  0  0  0  0  0  0  0  0  0  0  0
   21.8221   -5.3181   -0.3349 O   0  0  0  0  0  0  0  0  0  0  0  0
   20.5330   -7.8771   -0.3539 O   0  0  0  0  0  0  0  0  0  0  0  0
   20.1408   -9.0499   -1.0735 C   0  0  1  0  0  0  0  0  0  0  0  0
   20.9643  -10.4642   -0.3736 S   0  0  0  0  0  0  0  0  0  0  0  0
   22.6578  -10.0777   -0.7625 C   0  0  0  0  0  0  0  0  0  0  0  0
   23.4416   -9.3885    0.1552 C   0  0  0  0  0  0  0  0  0  0  0  0
   24.7639   -9.0867   -0.1485 C   0  0  0  0  0  0  0  0  0  0  0  0
   25.3023   -9.4741   -1.3698 C   0  0  0  0  0  0  0  0  0  0  0  0
   24.5184  -10.1634   -2.2875 C   0  0  0  0  0  0  0  0  0  0  0  0
   23.1962  -10.4652   -1.9838 C   0  0  0  0  0  0  0  0  0  0  0  0
   16.1370   -8.6931    0.7999 H   0  0  0  0  0  0  0  0  0  0  0  0
   18.0004   -7.8640   -2.5546 H   0  0  0  0  0  0  0  0  0  0  0  0
   18.3359   -9.4423    0.0438 H   0  0  0  0  0  0  0  0  0  0  0  0
   18.4193  -10.2732   -2.7059 H   0  0  0  0  0  0  0  0  0  0  0  0
   17.9896   -5.8210   -1.1827 H   0  0  0  0  0  0  0  0  0  0  0  0
   17.4974   -5.9795    0.8644 H   0  0  0  0  0  0  0  0  0  0  0  0
   20.2855   -6.4938   -1.8862 H   0  0  0  0  0  0  0  0  0  0  0  0
   19.9271   -4.6083   -0.3081 H   0  0  0  0  0  0  0  0  0  0  0  0
   20.3645   -5.7222    1.0095 H   0  0  0  0  0  0  0  0  0  0  0  0
   22.2085   -5.9552   -1.0018 H   0  0  0  0  0  0  0  0  0  0  0  0
   20.4696   -8.9836   -2.1130 H   0  0  0  0  0  0  0  0  0  0  0  0
   23.0225   -9.0868    1.1060 H   0  0  0  0  0  0  0  0  0  0  0  0
   25.3742   -8.5500    0.5660 H   0  0  0  0  0  0  0  0  0  0  0  0
   24.9376  -10.4650   -3.2384 H   0  0  0  0  0  0  0  0  0  0  0  0
   22.5859  -11.0018   -2.6983 H   0  0  0  0  0  0  0  0  0  0  0  0
    9.6618   -9.6533   -0.3554 F   0  0  0  0  0  0  0  0  0  0  0  0
   11.9502   -9.1381   -1.8052 F   0  0  0  0  0  0  0  0  0  0  0  0
   12.0184   -8.6786    3.6755 F   0  0  0  0  0  0  0  0  0  0  0  0
   14.2963   -8.1677    2.2076 F   0  0  0  0  0  0  0  0  0  0  0  0
   26.7293   -9.1484   -1.6975 C   0  0  0  0  0  0  0  0  0  0  0  0
   26.9702   -9.5291   -2.6901 H   0  0  0  0  0  0  0  0  0  0  0  0
   27.3861   -9.6119   -0.9613 H   0  0  0  0  0  0  0  0  0  0  0  0
   26.8687   -8.0675   -1.6793 H   0  0  0  0  0  0  0  0  0  0  0  0
    9.5629   -9.4529    2.4761 N   0  0  0  0  0  0  0  0  0  0  0  0
    9.5840   -9.3253    3.9906 C   0  0  0  0  0  0  0  0  0  0  0  0
    8.2833   -9.8633    1.7658 C   0  0  0  0  0  0  0  0  0  0  0  0
    7.5771  -10.2658    2.4920 H   0  0  0  0  0  0  0  0  0  0  0  0
    7.8443   -8.9942    1.2759 H   0  0  0  0  0  0  0  0  0  0  0  0
    8.5104  -10.6247    1.0195 H   0  0  0  0  0  0  0  0  0  0  0  0
    8.5985   -9.5653    4.3898 H   0  0  0  0  0  0  0  0  0  0  0  0
   10.3205  -10.0147    4.4036 H   0  0  0  0  0  0  0  0  0  0  0  0
    9.8483   -8.3043    4.2661 H   0  0  0  0  0  0  0  0  0  0  0  0
  1  2  2  0
  1  3  1  0
  1 44  1  0
  2  6  1  0
  2 45  1  0
  3  4  2  0
  3 52  1  0
  4  5  1  0
  4 46  1  0
  5  6  2  0
  5 47  1  0
  6  7  1  0
  7  8  1  0
  7 10  2  0
  8  9  2  0
  9 11  1  0
 10 11  1  0
 10 29  1  0
 11 12  1  0
 12 13  1  0
 12 15  1  0
 12 30  1  6
 13 14  1  0
 13 21  1  0
 13 31  1  1
 14 32  1  0
 15 16  1  0
 15 17  1  0
 15 33  1  6
 16 34  1  0
 17 18  1  0
 17 20  1  0
 17 35  1  6
 18 19  1  0
 18 36  1  0
 18 37  1  0
 19 38  1  0
 20 21  1  0
 21 22  1  0
 21 39  1  6
 22 23  1  0
 23 24  2  0
 23 28  1  0
 24 25  1  0
 24 40  1  0
 25 26  2  0
 25 41  1  0
 26 27  1  0
 26 48  1  0
 27 28  2  0
 27 42  1  0
 28 43  1  0
 48 49  1  0
 48 50  1  0
 48 51  1  0
 52 53  1  0
 52 54  1  0
 53 58  1  0
 53 59  1  0
 53 60  1  0
 54 55  1  0
 54 56  1  0
 54 57  1  0
M  END
>  <i_m_Source_File_Index>  (7) 
7

>  <b_m_subgroup_collapsed>  (7) 
0

>  <r_exp_dg>  (7) 
-5.99988

>  <s_m_Source_File>  (7) 
galectin3_extra_ligands.sdf

>  <s_m_Source_Path>  (7) 
/efs/home/chaya/odyssey/projects/openfe-benchmark/Galectin

>  <s_m_entry_id>  (7) 
13

>  <s_m_entry_name>  (7) 
galectin3_extra_ligands.7

>  <s_m_subgroup_title>  (7) 
galectin3_extra_ligands

>  <s_m_subgroupid>  (7) 
galectin3_extra_ligands

>  <experimental dG reference units>  (7) 
kcal/mol

>  <experimental dG reference field>  (7) 
r_exp_dg

>  <kJ/mol experimental dG>  (7) 
-25.103497920000002

>  <kcal/mol experimental dG>  (7) 
-5.99988

$$$$
18i
     RDKit          3D

 64 68  0  0  1  0  0  0  0  0999 V2000
   10.8011   -9.2877    0.2796 C   0  0  0  0  0  0  0  0  0  0  0  0
   11.9594   -9.0271   -0.4571 C   0  0  0  0  0  0  0  0  0  0  0  0
   10.8214   -9.1701    1.6720 C   0  0  0  0  0  0  0  0  0  0  0  0
   11.9975   -8.7929    2.3259 C   0  0  0  0  0  0  0  0  0  0  0  0
   13.1528   -8.5335    1.5842 C   0  0  0  0  0  0  0  0  0  0  0  0
   13.1326   -8.6508    0.1952 C   0  0  0  0  0  0  0  0  0  0  0  0
   14.3746   -8.3717   -0.5984 C   0  0  0  0  0  0  0  0  0  0  0  0
   14.3469   -8.0117   -1.8695 N   0  0  0  0  0  0  0  0  0  0  0  0
   15.6495   -7.8341   -2.2967 N   0  0  0  0  0  0  0  0  0  0  0  0
   15.6852   -8.4424   -0.1508 C   0  0  0  0  0  0  0  0  0  0  0  0
   16.4360   -8.0988   -1.2459 N   0  0  0  0  0  0  0  0  0  0  0  0
   17.8723   -7.9717   -1.4752 C   0  0  2  0  0  0  0  0  0  0  0  0
   18.6128   -9.2294   -0.9901 C   0  0  1  0  0  0  0  0  0  0  0  0
   18.2247  -10.3300   -1.7266 O   0  0  0  0  0  0  0  0  0  0  0  0
   18.4278   -6.7273   -0.7622 C   0  0  1  0  0  0  0  0  0  0  0  0
   18.0594   -6.7515    0.5675 O   0  0  0  0  0  0  0  0  0  0  0  0
   19.9644   -6.6641   -0.8562 C   0  0  1  0  0  0  0  0  0  0  0  0
   20.4848   -5.5093   -0.0527 C   0  0  0  0  0  0  0  0  0  0  0  0
   21.8221   -5.3181   -0.3349 O   0  0  0  0  0  0  0  0  0  0  0  0
   20.5330   -7.8771   -0.3539 O   0  0  0  0  0  0  0  0  0  0  0  0
   20.1408   -9.0499   -1.0735 C   0  0  1  0  0  0  0  0  0  0  0  0
   20.9643  -10.4642   -0.3736 S   0  0  0  0  0  0  0  0  0  0  0  0
   22.6578  -10.0777   -0.7625 C   0  0  0  0  0  0  0  0  0  0  0  0
   23.4416   -9.3885    0.1552 C   0  0  0  0  0  0  0  0  0  0  0  0
   24.7639   -9.0867   -0.1485 C   0  0  0  0  0  0  0  0  0  0  0  0
   25.3023   -9.4741   -1.3698 C   0  0  0  0  0  0  0  0  0  0  0  0
   24.5184  -10.1634   -2.2875 C   0  0  0  0  0  0  0  0  0  0  0  0
   23.1962  -10.4652   -1.9838 C   0  0  0  0  0  0  0  0  0  0  0  0
   16.1370   -8.6931    0.7999 H   0  0  0  0  0  0  0  0  0  0  0  0
   18.0004   -7.8640   -2.5546 H   0  0  0  0  0  0  0  0  0  0  0  0
   18.3359   -9.4423    0.0438 H   0  0  0  0  0  0  0  0  0  0  0  0
   18.4193  -10.2732   -2.7059 H   0  0  0  0  0  0  0  0  0  0  0  0
   17.9896   -5.8210   -1.1827 H   0  0  0  0  0  0  0  0  0  0  0  0
   17.4974   -5.9795    0.8644 H   0  0  0  0  0  0  0  0  0  0  0  0
   20.2855   -6.4938   -1.8862 H   0  0  0  0  0  0  0  0  0  0  0  0
   19.9271   -4.6083   -0.3081 H   0  0  0  0  0  0  0  0  0  0  0  0
   20.3645   -5.7222    1.0095 H   0  0  0  0  0  0  0  0  0  0  0  0
   22.2085   -5.9552   -1.0018 H   0  0  0  0  0  0  0  0  0  0  0  0
   20.4696   -8.9836   -2.1130 H   0  0  0  0  0  0  0  0  0  0  0  0
   23.0225   -9.0868    1.1060 H   0  0  0  0  0  0  0  0  0  0  0  0
   25.3742   -8.5500    0.5660 H   0  0  0  0  0  0  0  0  0  0  0  0
   24.9376  -10.4650   -3.2384 H   0  0  0  0  0  0  0  0  0  0  0  0
   22.5859  -11.0018   -2.6983 H   0  0  0  0  0  0  0  0  0  0  0  0
    9.6618   -9.6533   -0.3554 F   0  0  0  0  0  0  0  0  0  0  0  0
   11.9502   -9.1381   -1.8052 F   0  0  0  0  0  0  0  0  0  0  0  0
   12.0184   -8.6786    3.6755 F   0  0  0  0  0  0  0  0  0  0  0  0
   14.2963   -8.1677    2.2076 F   0  0  0  0  0  0  0  0  0  0  0  0
   26.7293   -9.1484   -1.6975 C   0  0  0  0  0  0  0  0  0  0  0  0
   26.9702   -9.5291   -2.6901 H   0  0  0  0  0  0  0  0  0  0  0  0
   27.3861   -9.6119   -0.9613 H   0  0  0  0  0  0  0  0  0  0  0  0
   26.8687   -8.0675   -1.6793 H   0  0  0  0  0  0  0  0  0  0  0  0
    9.4966   -9.4771    2.4028 N   0  0  0  0  0  0  0  0  0  0  0  0
    9.0376  -10.9117    2.1090 C   0  0  0  0  0  0  0  0  0  0  0  0
    7.5105  -10.8154    2.1058 C   0  0  0  0  0  0  0  0  0  0  0  0
    7.2650   -9.4922    1.3771 C   0  0  0  0  0  0  0  0  0  0  0  0
    8.3597   -8.5607    1.9154 C   0  0  0  0  0  0  0  0  0  0  0  0
    9.4133  -11.6357    2.8321 H   0  0  0  0  0  0  0  0  0  0  0  0
    9.3811  -11.2134    1.1195 H   0  0  0  0  0  0  0  0  0  0  0  0
    7.0209  -11.6852    1.6051 H   0  0  0  0  0  0  0  0  0  0  0  0
    7.1311  -10.7489    3.1544 H   0  0  0  0  0  0  0  0  0  0  0  0
    7.4059   -9.6459    0.2795 H   0  0  0  0  0  0  0  0  0  0  0  0
    6.2342   -9.0946    1.5402 H   0  0  0  0  0  0  0  0  0  0  0  0
    7.9605   -7.9615    2.7696 H   0  0  0  0  0  0  0  0  0  0  0  0
    8.7026   -7.8416    1.1330 H   0  0  0  0  0  0  0  0  0  0  0  0
  1  2  2  0
  1  3  1  0
  1 44  1  0
  2  6  1  0
  2 45  1  0
  3  4  2  0
  3 52  1  0
  4  5  1  0
  4 46  1  0
  5  6  2  0
  5 47  1  0
  6  7  1  0
  7  8  1  0
  7 10  2  0
  8  9  2  0
  9 11  1  0
 10 11  1  0
 10 29  1  0
 11 12  1  0
 12 13  1  0
 12 15  1  0
 12 30  1  6
 13 14  1  0
 13 21  1  0
 13 31  1  1
 14 32  1  0
 15 16  1  0
 15 17  1  0
 15 33  1  6
 16 34  1  0
 17 18  1  0
 17 20  1  0
 17 35  1  6
 18 19  1  0
 18 36  1  0
 18 37  1  0
 19 38  1  0
 20 21  1  0
 21 22  1  0
 21 39  1  6
 22 23  1  0
 23 24  2  0
 23 28  1  0
 24 25  1  0
 24 40  1  0
 25 26  2  0
 25 41  1  0
 26 27  1  0
 26 48  1  0
 27 28  2  0
 27 42  1  0
 28 43  1  0
 48 49  1  0
 48 50  1  0
 48 51  1  0
 52 53  1  0
 52 56  1  0
 53 54  1  0
 53 57  1  0
 53 58  1  0
 54 55  1  0
 54 59  1  0
 54 60  1  0
 55 56  1  0
 55 61  1  0
 55 62  1  0
 56 63  1  0
 56 64  1  0
M  END
>  <i_m_Source_File_Index>  (8) 
8

>  <b_m_subgroup_collapsed>  (8) 
0

>  <r_exp_dg>  (8) 
-4.80608

>  <s_m_Source_File>  (8) 
galectin3_extra_ligands.sdf

>  <s_m_Source_Path>  (8) 
/efs/home/chaya/odyssey/projects/openfe-benchmark/Galectin

>  <s_m_entry_id>  (8) 
14

>  <s_m_entry_name>  (8) 
galectin3_extra_ligands.8

>  <s_m_subgroup_title>  (8) 
galectin3_extra_ligands

>  <s_m_subgroupid>  (8) 
galectin3_extra_ligands

>  <experimental dG reference units>  (8) 
kcal/mol

>  <experimental dG reference field>  (8) 
r_exp_dg

>  <kJ/mol experimental dG>  (8) 
-20.10863872

>  <kcal/mol experimental dG>  (8) 
-4.80608

$$$$
17m
     RDKit          3D

 55 58  0  0  1  0  0  0  0  0999 V2000
   14.3747   -8.3717   -0.5984 C   0  0  0  0  0  0  0  0  0  0  0  0
   14.3469   -8.0117   -1.8695 N   0  0  0  0  0  0  0  0  0  0  0  0
   15.6495   -7.8341   -2.2967 N   0  0  0  0  0  0  0  0  0  0  0  0
   15.6852   -8.4424   -0.1508 C   0  0  0  0  0  0  0  0  0  0  0  0
   16.4360   -8.0988   -1.2460 N   0  0  0  0  0  0  0  0  0  0  0  0
   17.8723   -7.9717   -1.4752 C   0  0  2  0  0  0  0  0  0  0  0  0
   18.6128   -9.2294   -0.9901 C   0  0  1  0  0  0  0  0  0  0  0  0
   18.2247  -10.3300   -1.7266 O   0  0  0  0  0  0  0  0  0  0  0  0
   18.4278   -6.7273   -0.7622 C   0  0  1  0  0  0  0  0  0  0  0  0
   18.0585   -6.7515    0.5671 O   0  0  0  0  0  0  0  0  0  0  0  0
   19.9644   -6.6641   -0.8562 C   0  0  1  0  0  0  0  0  0  0  0  0
   20.4848   -5.5093   -0.0527 C   0  0  0  0  0  0  0  0  0  0  0  0
   21.8221   -5.3181   -0.3349 O   0  0  0  0  0  0  0  0  0  0  0  0
   20.5330   -7.8771   -0.3539 O   0  0  0  0  0  0  0  0  0  0  0  0
   20.1408   -9.0499   -1.0735 C   0  0  1  0  0  0  0  0  0  0  0  0
   20.9643  -10.4642   -0.3736 S   0  0  0  0  0  0  0  0  0  0  0  0
   22.6578  -10.0777   -0.7625 C   0  0  0  0  0  0  0  0  0  0  0  0
   23.4416   -9.3885    0.1552 C   0  0  0  0  0  0  0  0  0  0  0  0
   24.7639   -9.0867   -0.1485 C   0  0  0  0  0  0  0  0  0  0  0  0
   25.3023   -9.4741   -1.3698 C   0  0  0  0  0  0  0  0  0  0  0  0
   24.5184  -10.1634   -2.2875 C   0  0  0  0  0  0  0  0  0  0  0  0
   23.1962  -10.4652   -1.9838 C   0  0  0  0  0  0  0  0  0  0  0  0
   16.1370   -8.6931    0.7999 H   0  0  0  0  0  0  0  0  0  0  0  0
   18.0004   -7.8640   -2.5546 H   0  0  0  0  0  0  0  0  0  0  0  0
   18.3359   -9.4423    0.0438 H   0  0  0  0  0  0  0  0  0  0  0  0
   18.4193  -10.2732   -2.7059 H   0  0  0  0  0  0  0  0  0  0  0  0
   17.9896   -5.8210   -1.1827 H   0  0  0  0  0  0  0  0  0  0  0  0
   17.4975   -5.9795    0.8644 H   0  0  0  0  0  0  0  0  0  0  0  0
   20.2855   -6.4938   -1.8862 H   0  0  0  0  0  0  0  0  0  0  0  0
   19.9271   -4.6083   -0.3081 H   0  0  0  0  0  0  0  0  0  0  0  0
   20.3645   -5.7222    1.0095 H   0  0  0  0  0  0  0  0  0  0  0  0
   22.2085   -5.9552   -1.0018 H   0  0  0  0  0  0  0  0  0  0  0  0
   20.4696   -8.9836   -2.1130 H   0  0  0  0  0  0  0  0  0  0  0  0
   23.0225   -9.0868    1.1060 H   0  0  0  0  0  0  0  0  0  0  0  0
   25.3742   -8.5500    0.5660 H   0  0  0  0  0  0  0  0  0  0  0  0
   24.9376  -10.4650   -3.2384 H   0  0  0  0  0  0  0  0  0  0  0  0
   22.5859  -11.0018   -2.6983 H   0  0  0  0  0  0  0  0  0  0  0  0
   26.7293   -9.1484   -1.6975 C   0  0  0  0  0  0  0  0  0  0  0  0
   26.9702   -9.5291   -2.6901 H   0  0  0  0  0  0  0  0  0  0  0  0
   27.3861   -9.6119   -0.9613 H   0  0  0  0  0  0  0  0  0  0  0  0
   26.8687   -8.0675   -1.6793 H   0  0  0  0  0  0  0  0  0  0  0  0
   12.6058   -9.4223   -0.3810 H   0  0  0  0  0  0  0  0  0  0  0  0
   13.1787   -8.6363    0.1484 C   0  0  0  0  0  0  0  0  0  0  0  0
   12.3121   -7.3767    0.2807 C   0  0  0  0  0  0  0  0  0  0  0  0
   11.6305   -7.5411    1.6409 C   0  0  0  0  0  0  0  0  0  0  0  0
   12.7581   -8.1041    2.5090 C   0  0  0  0  0  0  0  0  0  0  0  0
   13.4800   -9.0959    1.5864 C   0  0  0  0  0  0  0  0  0  0  0  0
   11.5829   -7.2587   -0.5568 H   0  0  0  0  0  0  0  0  0  0  0  0
   12.9642   -6.4698    0.3023 H   0  0  0  0  0  0  0  0  0  0  0  0
   11.2133   -6.5839    2.0367 H   0  0  0  0  0  0  0  0  0  0  0  0
   10.8013   -8.2855    1.5636 H   0  0  0  0  0  0  0  0  0  0  0  0
   13.4530   -7.2759    2.7908 H   0  0  0  0  0  0  0  0  0  0  0  0
   12.3841   -8.5756    3.4497 H   0  0  0  0  0  0  0  0  0  0  0  0
   13.0785  -10.1256    1.7494 H   0  0  0  0  0  0  0  0  0  0  0  0
   14.5758   -9.1260    1.7996 H   0  0  0  0  0  0  0  0  0  0  0  0
  1  2  1  0
  1  4  2  0
  1 43  1  0
  2  3  2  0
  3  5  1  0
  4  5  1  0
  4 23  1  0
  5  6  1  0
  6  7  1  0
  6  9  1  0
  6 24  1  6
  7  8  1  0
  7 15  1  0
  7 25  1  1
  8 26  1  0
  9 10  1  0
  9 11  1  0
  9 27  1  6
 10 28  1  0
 11 12  1  0
 11 14  1  0
 11 29  1  6
 12 13  1  0
 12 30  1  0
 12 31  1  0
 13 32  1  0
 14 15  1  0
 15 16  1  0
 15 33  1  6
 16 17  1  0
 17 18  2  0
 17 22  1  0
 18 19  1  0
 18 34  1  0
 19 20  2  0
 19 35  1  0
 20 21  1  0
 20 38  1  0
 21 22  2  0
 21 36  1  0
 22 37  1  0
 38 39  1  0
 38 40  1  0
 38 41  1  0
 42 43  1  0
 43 44  1  0
 43 47  1  0
 44 45  1  0
 44 48  1  0
 44 49  1  0
 45 46  1  0
 45 50  1  0
 45 51  1  0
 46 47  1  0
 46 52  1  0
 46 53  1  0
 47 54  1  0
 47 55  1  0
M  END
>  <i_m_Source_File_Index>  (9) 
9

>  <b_m_subgroup_collapsed>  (9) 
0

>  <r_exp_dg>  (9) 
-4.10471

>  <s_m_Source_File>  (9) 
galectin3_extra_ligands.sdf

>  <s_m_Source_Path>  (9) 
/efs/home/chaya/odyssey/projects/openfe-benchmark/Galectin

>  <s_m_entry_id>  (9) 
15

>  <s_m_entry_name>  (9) 
galectin3_extra_ligands.9

>  <s_m_subgroup_title>  (9) 
galectin3_extra_ligands

>  <s_m_subgroupid>  (9) 
galectin3_extra_ligands

>  <experimental dG reference units>  (9) 
kcal/mol

>  <experimental dG reference field>  (9) 
r_exp_dg

>  <kJ/mol experimental dG>  (9) 
-17.17410664

>  <kcal/mol experimental dG>  (9) 
-4.10471

$$$$
17q
     RDKit          3D

 49 52  0  0  1  0  0  0  0  0999 V2000
   14.3739   -8.3718   -0.5979 C   0  0  0  0  0  0  0  0  0  0  0  0
   14.3475   -8.0117   -1.8693 N   0  0  0  0  0  0  0  0  0  0  0  0
   15.6494   -7.8340   -2.2969 N   0  0  0  0  0  0  0  0  0  0  0  0
   15.6852   -8.4423   -0.1510 C   0  0  0  0  0  0  0  0  0  0  0  0
   16.4358   -8.0988   -1.2466 N   0  0  0  0  0  0  0  0  0  0  0  0
   17.8723   -7.9717   -1.4752 C   0  0  2  0  0  0  0  0  0  0  0  0
   18.6128   -9.2294   -0.9901 C   0  0  1  0  0  0  0  0  0  0  0  0
   18.2247  -10.3300   -1.7266 O   0  0  0  0  0  0  0  0  0  0  0  0
   18.4278   -6.7273   -0.7622 C   0  0  1  0  0  0  0  0  0  0  0  0
   18.0556   -6.7520    0.5655 O   0  0  0  0  0  0  0  0  0  0  0  0
   19.9644   -6.6641   -0.8562 C   0  0  1  0  0  0  0  0  0  0  0  0
   20.4848   -5.5093   -0.0527 C   0  0  0  0  0  0  0  0  0  0  0  0
   21.8221   -5.3181   -0.3349 O   0  0  0  0  0  0  0  0  0  0  0  0
   20.5330   -7.8771   -0.3539 O   0  0  0  0  0  0  0  0  0  0  0  0
   20.1408   -9.0499   -1.0735 C   0  0  1  0  0  0  0  0  0  0  0  0
   20.9643  -10.4642   -0.3736 S   0  0  0  0  0  0  0  0  0  0  0  0
   22.6578  -10.0777   -0.7625 C   0  0  0  0  0  0  0  0  0  0  0  0
   23.4416   -9.3885    0.1552 C   0  0  0  0  0  0  0  0  0  0  0  0
   24.7639   -9.0867   -0.1485 C   0  0  0  0  0  0  0  0  0  0  0  0
   25.3023   -9.4741   -1.3698 C   0  0  0  0  0  0  0  0  0  0  0  0
   24.5184  -10.1634   -2.2875 C   0  0  0  0  0  0  0  0  0  0  0  0
   23.1962  -10.4652   -1.9838 C   0  0  0  0  0  0  0  0  0  0  0  0
   16.1369   -8.6932    0.8002 H   0  0  0  0  0  0  0  0  0  0  0  0
   18.0004   -7.8640   -2.5546 H   0  0  0  0  0  0  0  0  0  0  0  0
   18.3358   -9.4422    0.0438 H   0  0  0  0  0  0  0  0  0  0  0  0
   18.4193  -10.2732   -2.7059 H   0  0  0  0  0  0  0  0  0  0  0  0
   17.9896   -5.8210   -1.1827 H   0  0  0  0  0  0  0  0  0  0  0  0
   17.4967   -5.9790    0.8645 H   0  0  0  0  0  0  0  0  0  0  0  0
   20.2855   -6.4938   -1.8862 H   0  0  0  0  0  0  0  0  0  0  0  0
   19.9271   -4.6083   -0.3081 H   0  0  0  0  0  0  0  0  0  0  0  0
   20.3645   -5.7222    1.0095 H   0  0  0  0  0  0  0  0  0  0  0  0
   22.2085   -5.9552   -1.0018 H   0  0  0  0  0  0  0  0  0  0  0  0
   20.4696   -8.9836   -2.1130 H   0  0  0  0  0  0  0  0  0  0  0  0
   23.0225   -9.0868    1.1060 H   0  0  0  0  0  0  0  0  0  0  0  0
   25.3742   -8.5500    0.5660 H   0  0  0  0  0  0  0  0  0  0  0  0
   24.9376  -10.4650   -3.2384 H   0  0  0  0  0  0  0  0  0  0  0  0
   22.5859  -11.0018   -2.6983 H   0  0  0  0  0  0  0  0  0  0  0  0
   26.7293   -9.1484   -1.6975 C   0  0  0  0  0  0  0  0  0  0  0  0
   26.9702   -9.5291   -2.6901 H   0  0  0  0  0  0  0  0  0  0  0  0
   27.3861   -9.6119   -0.9613 H   0  0  0  0  0  0  0  0  0  0  0  0
   26.8687   -8.0675   -1.6793 H   0  0  0  0  0  0  0  0  0  0  0  0
   13.1371   -8.6461    0.1500 C   0  0  0  0  0  0  0  0  0  0  0  0
   11.9390   -8.7707   -0.3854 N   0  0  0  0  0  0  0  0  0  0  0  0
   11.1154   -9.0081    0.6194 C   0  0  0  0  0  0  0  0  0  0  0  0
   11.7804   -9.0460    1.8378 C   0  0  0  0  0  0  0  0  0  0  0  0
   13.0914   -8.8110    1.5129 N   0  0  0  0  0  0  0  0  0  0  0  0
   11.4518   -9.2099    2.8581 H   0  0  0  0  0  0  0  0  0  0  0  0
   10.0556   -9.1490    0.4515 H   0  0  0  0  0  0  0  0  0  0  0  0
   13.8765   -8.7593    2.1447 H   0  0  0  0  0  0  0  0  0  0  0  0
  1  2  1  0
  1  4  2  0
  1 42  1  0
  2  3  2  0
  3  5  1  0
  4  5  1  0
  4 23  1  0
  5  6  1  0
  6  7  1  0
  6  9  1  0
  6 24  1  6
  7  8  1  0
  7 15  1  0
  7 25  1  1
  8 26  1  0
  9 10  1  0
  9 11  1  0
  9 27  1  6
 10 28  1  0
 11 12  1  0
 11 14  1  0
 11 29  1  6
 12 13  1  0
 12 30  1  0
 12 31  1  0
 13 32  1  0
 14 15  1  0
 15 16  1  0
 15 33  1  6
 16 17  1  0
 17 18  2  0
 17 22  1  0
 18 19  1  0
 18 34  1  0
 19 20  2  0
 19 35  1  0
 20 21  1  0
 20 38  1  0
 21 22  2  0
 21 36  1  0
 22 37  1  0
 38 39  1  0
 38 40  1  0
 38 41  1  0
 42 43  2  0
 42 46  1  0
 43 44  1  0
 44 45  2  0
 44 48  1  0
 45 46  1  0
 45 47  1  0
 46 49  1  0
M  END
>  <i_m_Source_File_Index>  (10) 
10

>  <b_m_subgroup_collapsed>  (10) 
0

>  <r_exp_dg>  (10) 
-4.98984

>  <s_m_Source_File>  (10) 
galectin3_extra_ligands.sdf

>  <s_m_Source_Path>  (10) 
/efs/home/chaya/odyssey/projects/openfe-benchmark/Galectin

>  <s_m_entry_id>  (10) 
16

>  <s_m_entry_name>  (10) 
galectin3_extra_ligands.10

>  <s_m_subgroup_title>  (10) 
galectin3_extra_ligands

>  <s_m_subgroupid>  (10) 
galectin3_extra_ligands

>  <experimental dG reference units>  (10) 
kcal/mol

>  <experimental dG reference field>  (10) 
r_exp_dg

>  <kJ/mol experimental dG>  (10) 
-20.877490560000002

>  <kcal/mol experimental dG>  (10) 
-4.98984

$$$$
17r
     RDKit          3D

 49 52  0  0  1  0  0  0  0  0999 V2000
   14.3747   -8.3717   -0.5980 C   0  0  0  0  0  0  0  0  0  0  0  0
   14.3472   -8.0118   -1.8690 N   0  0  0  0  0  0  0  0  0  0  0  0
   15.6492   -7.8339   -2.2973 N   0  0  0  0  0  0  0  0  0  0  0  0
   15.6851   -8.4422   -0.1512 C   0  0  0  0  0  0  0  0  0  0  0  0
   16.4367   -8.0990   -1.2456 N   0  0  0  0  0  0  0  0  0  0  0  0
   17.8723   -7.9717   -1.4752 C   0  0  2  0  0  0  0  0  0  0  0  0
   18.6128   -9.2294   -0.9901 C   0  0  1  0  0  0  0  0  0  0  0  0
   18.2247  -10.3300   -1.7266 O   0  0  0  0  0  0  0  0  0  0  0  0
   18.4278   -6.7273   -0.7622 C   0  0  1  0  0  0  0  0  0  0  0  0
   18.0580   -6.7518    0.5668 O   0  0  0  0  0  0  0  0  0  0  0  0
   19.9644   -6.6641   -0.8562 C   0  0  1  0  0  0  0  0  0  0  0  0
   20.4848   -5.5093   -0.0527 C   0  0  0  0  0  0  0  0  0  0  0  0
   21.8221   -5.3181   -0.3349 O   0  0  0  0  0  0  0  0  0  0  0  0
   20.5330   -7.8771   -0.3539 O   0  0  0  0  0  0  0  0  0  0  0  0
   20.1408   -9.0499   -1.0735 C   0  0  1  0  0  0  0  0  0  0  0  0
   20.9643  -10.4642   -0.3736 S   0  0  0  0  0  0  0  0  0  0  0  0
   22.6578  -10.0777   -0.7625 C   0  0  0  0  0  0  0  0  0  0  0  0
   23.4416   -9.3885    0.1552 C   0  0  0  0  0  0  0  0  0  0  0  0
   24.7639   -9.0867   -0.1485 C   0  0  0  0  0  0  0  0  0  0  0  0
   25.3023   -9.4741   -1.3698 C   0  0  0  0  0  0  0  0  0  0  0  0
   24.5184  -10.1634   -2.2875 C   0  0  0  0  0  0  0  0  0  0  0  0
   23.1962  -10.4652   -1.9838 C   0  0  0  0  0  0  0  0  0  0  0  0
   16.1371   -8.6932    0.8004 H   0  0  0  0  0  0  0  0  0  0  0  0
   18.0004   -7.8640   -2.5546 H   0  0  0  0  0  0  0  0  0  0  0  0
   18.3357   -9.4422    0.0438 H   0  0  0  0  0  0  0  0  0  0  0  0
   18.4193  -10.2732   -2.7059 H   0  0  0  0  0  0  0  0  0  0  0  0
   17.9896   -5.8210   -1.1827 H   0  0  0  0  0  0  0  0  0  0  0  0
   17.4967   -5.9790    0.8645 H   0  0  0  0  0  0  0  0  0  0  0  0
   20.2855   -6.4938   -1.8862 H   0  0  0  0  0  0  0  0  0  0  0  0
   19.9271   -4.6083   -0.3081 H   0  0  0  0  0  0  0  0  0  0  0  0
   20.3645   -5.7222    1.0095 H   0  0  0  0  0  0  0  0  0  0  0  0
   22.2085   -5.9552   -1.0018 H   0  0  0  0  0  0  0  0  0  0  0  0
   20.4696   -8.9836   -2.1130 H   0  0  0  0  0  0  0  0  0  0  0  0
   23.0225   -9.0868    1.1060 H   0  0  0  0  0  0  0  0  0  0  0  0
   25.3742   -8.5500    0.5660 H   0  0  0  0  0  0  0  0  0  0  0  0
   24.9376  -10.4650   -3.2384 H   0  0  0  0  0  0  0  0  0  0  0  0
   22.5859  -11.0018   -2.6983 H   0  0  0  0  0  0  0  0  0  0  0  0
   26.7293   -9.1484   -1.6975 C   0  0  0  0  0  0  0  0  0  0  0  0
   26.9702   -9.5291   -2.6901 H   0  0  0  0  0  0  0  0  0  0  0  0
   27.3861   -9.6119   -0.9613 H   0  0  0  0  0  0  0  0  0  0  0  0
   26.8687   -8.0675   -1.6793 H   0  0  0  0  0  0  0  0  0  0  0  0
   13.1279   -8.6556    0.2341 C   0  0  0  0  0  0  0  0  0  0  0  0
   11.9165   -8.7844   -0.2794 N   0  0  0  0  0  0  0  0  0  0  0  0
   11.0649   -9.0234    0.6937 C   0  0  0  0  0  0  0  0  0  0  0  0
   11.6956   -9.0629    1.9079 N   0  0  0  0  0  0  0  0  0  0  0  0
   13.0297   -8.8256    1.6086 C   0  0  0  0  0  0  0  0  0  0  0  0
   10.0533   -9.1528    0.4608 H   0  0  0  0  0  0  0  0  0  0  0  0
   11.2444   -9.2312    2.7962 H   0  0  0  0  0  0  0  0  0  0  0  0
   13.9446   -8.7474    2.1745 H   0  0  0  0  0  0  0  0  0  0  0  0
  1  2  1  0
  1  4  2  0
  1 42  1  0
  2  3  2  0
  3  5  1  0
  4  5  1  0
  4 23  1  0
  5  6  1  0
  6  7  1  0
  6  9  1  0
  6 24  1  6
  7  8  1  0
  7 15  1  0
  7 25  1  1
  8 26  1  0
  9 10  1  0
  9 11  1  0
  9 27  1  6
 10 28  1  0
 11 12  1  0
 11 14  1  0
 11 29  1  6
 12 13  1  0
 12 30  1  0
 12 31  1  0
 13 32  1  0
 14 15  1  0
 15 16  1  0
 15 33  1  6
 16 17  1  0
 17 18  2  0
 17 22  1  0
 18 19  1  0
 18 34  1  0
 19 20  2  0
 19 35  1  0
 20 21  1  0
 20 38  1  0
 21 22  2  0
 21 36  1  0
 22 37  1  0
 38 39  1  0
 38 40  1  0
 38 41  1  0
 42 43  1  0
 42 46  2  0
 43 44  2  0
 44 45  1  0
 44 47  1  0
 45 46  1  0
 45 48  1  0
 46 49  1  0
M  END
>  <i_m_Source_File_Index>  (11) 
11

>  <b_m_subgroup_collapsed>  (11) 
0

>  <r_exp_dg>  (11) 
-4.74961

>  <s_m_Source_File>  (11) 
galectin3_extra_ligands.sdf

>  <s_m_Source_Path>  (11) 
/efs/home/chaya/odyssey/projects/openfe-benchmark/Galectin

>  <s_m_entry_id>  (11) 
17

>  <s_m_entry_name>  (11) 
galectin3_extra_ligands.11

>  <s_m_subgroup_title>  (11) 
galectin3_extra_ligands

>  <s_m_subgroupid>  (11) 
galectin3_extra_ligands

>  <experimental dG reference units>  (11) 
kcal/mol

>  <experimental dG reference field>  (11) 
r_exp_dg

>  <kJ/mol experimental dG>  (11) 
-19.87236824

>  <kcal/mol experimental dG>  (11) 
-4.74961

$$$$
17n
     RDKit          3D

 49 52  0  0  1  0  0  0  0  0999 V2000
   14.3747   -8.3717   -0.5984 C   0  0  0  0  0  0  0  0  0  0  0  0
   14.3469   -8.0117   -1.8695 N   0  0  0  0  0  0  0  0  0  0  0  0
   15.6495   -7.8341   -2.2967 N   0  0  0  0  0  0  0  0  0  0  0  0
   15.6852   -8.4424   -0.1508 C   0  0  0  0  0  0  0  0  0  0  0  0
   16.4360   -8.0988   -1.2460 N   0  0  0  0  0  0  0  0  0  0  0  0
   17.8723   -7.9717   -1.4752 C   0  0  2  0  0  0  0  0  0  0  0  0
   18.6128   -9.2294   -0.9901 C   0  0  1  0  0  0  0  0  0  0  0  0
   18.2247  -10.3300   -1.7266 O   0  0  0  0  0  0  0  0  0  0  0  0
   18.4278   -6.7273   -0.7622 C   0  0  1  0  0  0  0  0  0  0  0  0
   18.0585   -6.7515    0.5671 O   0  0  0  0  0  0  0  0  0  0  0  0
   19.9644   -6.6641   -0.8562 C   0  0  1  0  0  0  0  0  0  0  0  0
   20.4848   -5.5093   -0.0527 C   0  0  0  0  0  0  0  0  0  0  0  0
   21.8221   -5.3181   -0.3349 O   0  0  0  0  0  0  0  0  0  0  0  0
   20.5330   -7.8771   -0.3539 O   0  0  0  0  0  0  0  0  0  0  0  0
   20.1408   -9.0499   -1.0735 C   0  0  1  0  0  0  0  0  0  0  0  0
   20.9643  -10.4642   -0.3736 S   0  0  0  0  0  0  0  0  0  0  0  0
   22.6578  -10.0777   -0.7625 C   0  0  0  0  0  0  0  0  0  0  0  0
   23.4416   -9.3885    0.1552 C   0  0  0  0  0  0  0  0  0  0  0  0
   24.7639   -9.0867   -0.1485 C   0  0  0  0  0  0  0  0  0  0  0  0
   25.3023   -9.4741   -1.3698 C   0  0  0  0  0  0  0  0  0  0  0  0
   24.5184  -10.1634   -2.2875 C   0  0  0  0  0  0  0  0  0  0  0  0
   23.1962  -10.4652   -1.9838 C   0  0  0  0  0  0  0  0  0  0  0  0
   16.1370   -8.6931    0.7999 H   0  0  0  0  0  0  0  0  0  0  0  0
   18.0004   -7.8640   -2.5546 H   0  0  0  0  0  0  0  0  0  0  0  0
   18.3359   -9.4423    0.0438 H   0  0  0  0  0  0  0  0  0  0  0  0
   18.4193  -10.2732   -2.7059 H   0  0  0  0  0  0  0  0  0  0  0  0
   17.9896   -5.8210   -1.1827 H   0  0  0  0  0  0  0  0  0  0  0  0
   17.4975   -5.9795    0.8644 H   0  0  0  0  0  0  0  0  0  0  0  0
   20.2855   -6.4938   -1.8862 H   0  0  0  0  0  0  0  0  0  0  0  0
   19.9271   -4.6083   -0.3081 H   0  0  0  0  0  0  0  0  0  0  0  0
   20.3645   -5.7222    1.0095 H   0  0  0  0  0  0  0  0  0  0  0  0
   22.2085   -5.9552   -1.0018 H   0  0  0  0  0  0  0  0  0  0  0  0
   20.4696   -8.9836   -2.1130 H   0  0  0  0  0  0  0  0  0  0  0  0
   23.0225   -9.0868    1.1060 H   0  0  0  0  0  0  0  0  0  0  0  0
   25.3742   -8.5500    0.5660 H   0  0  0  0  0  0  0  0  0  0  0  0
   24.9376  -10.4650   -3.2384 H   0  0  0  0  0  0  0  0  0  0  0  0
   22.5859  -11.0018   -2.6983 H   0  0  0  0  0  0  0  0  0  0  0  0
   26.7293   -9.1484   -1.6975 C   0  0  0  0  0  0  0  0  0  0  0  0
   26.9702   -9.5291   -2.6901 H   0  0  0  0  0  0  0  0  0  0  0  0
   27.3861   -9.6119   -0.9613 H   0  0  0  0  0  0  0  0  0  0  0  0
   26.8687   -8.0675   -1.6793 H   0  0  0  0  0  0  0  0  0  0  0  0
   13.1918   -8.6397    0.1625 C   0  0  0  0  0  0  0  0  0  0  0  0
   11.9125   -8.7734   -0.3728 C   0  0  0  0  0  0  0  0  0  0  0  0
   11.0728   -9.0228    0.6970 C   0  0  0  0  0  0  0  0  0  0  0  0
   11.7798   -9.0453    1.8622 O   0  0  0  0  0  0  0  0  0  0  0  0
   13.0683   -8.8111    1.5265 C   0  0  0  0  0  0  0  0  0  0  0  0
   13.7888   -8.7879    2.3255 H   0  0  0  0  0  0  0  0  0  0  0  0
   10.0061   -9.1932    0.7634 H   0  0  0  0  0  0  0  0  0  0  0  0
   11.6501   -8.6932   -1.4264 H   0  0  0  0  0  0  0  0  0  0  0  0
  1  2  1  0
  1  4  2  0
  1 42  1  0
  2  3  2  0
  3  5  1  0
  4  5  1  0
  4 23  1  0
  5  6  1  0
  6  7  1  0
  6  9  1  0
  6 24  1  6
  7  8  1  0
  7 15  1  0
  7 25  1  1
  8 26  1  0
  9 10  1  0
  9 11  1  0
  9 27  1  6
 10 28  1  0
 11 12  1  0
 11 14  1  0
 11 29  1  6
 12 13  1  0
 12 30  1  0
 12 31  1  0
 13 32  1  0
 14 15  1  0
 15 16  1  0
 15 33  1  6
 16 17  1  0
 17 18  2  0
 17 22  1  0
 18 19  1  0
 18 34  1  0
 19 20  2  0
 19 35  1  0
 20 21  1  0
 20 38  1  0
 21 22  2  0
 21 36  1  0
 22 37  1  0
 38 39  1  0
 38 40  1  0
 38 41  1  0
 42 43  1  0
 42 46  2  0
 43 44  2  0
 43 49  1  0
 44 45  1  0
 44 48  1  0
 45 46  1  0
 46 47  1  0
M  END
>  <i_m_Source_File_Index>  (12) 
12

>  <b_m_subgroup_collapsed>  (12) 
0

>  <r_exp_dg>  (12) 
-4.9141

>  <s_m_Source_File>  (12) 
galectin3_extra_ligands.sdf

>  <s_m_Source_Path>  (12) 
/efs/home/chaya/odyssey/projects/openfe-benchmark/Galectin

>  <s_m_entry_id>  (12) 
18

>  <s_m_entry_name>  (12) 
galectin3_extra_ligands.12

>  <s_m_subgroup_title>  (12) 
galectin3_extra_ligands

>  <s_m_subgroupid>  (12) 
galectin3_extra_ligands

>  <experimental dG reference units>  (12) 
kcal/mol

>  <experimental dG reference field>  (12) 
r_exp_dg

>  <kJ/mol experimental dG>  (12) 
-20.560594400000003

>  <kcal/mol experimental dG>  (12) 
-4.9141

$$$$
17p
     RDKit          3D

 49 52  0  0  1  0  0  0  0  0999 V2000
   14.3746   -8.3717   -0.5983 C   0  0  0  0  0  0  0  0  0  0  0  0
   14.3470   -8.0117   -1.8695 N   0  0  0  0  0  0  0  0  0  0  0  0
   15.6495   -7.8341   -2.2967 N   0  0  0  0  0  0  0  0  0  0  0  0
   15.6853   -8.4424   -0.1509 C   0  0  0  0  0  0  0  0  0  0  0  0
   16.4358   -8.0988   -1.2462 N   0  0  0  0  0  0  0  0  0  0  0  0
   17.8723   -7.9717   -1.4752 C   0  0  2  0  0  0  0  0  0  0  0  0
   18.6128   -9.2294   -0.9901 C   0  0  1  0  0  0  0  0  0  0  0  0
   18.2247  -10.3300   -1.7266 O   0  0  0  0  0  0  0  0  0  0  0  0
   18.4278   -6.7273   -0.7622 C   0  0  1  0  0  0  0  0  0  0  0  0
   18.0579   -6.7515    0.5667 O   0  0  0  0  0  0  0  0  0  0  0  0
   19.9644   -6.6641   -0.8562 C   0  0  1  0  0  0  0  0  0  0  0  0
   20.4848   -5.5093   -0.0527 C   0  0  0  0  0  0  0  0  0  0  0  0
   21.8221   -5.3181   -0.3349 O   0  0  0  0  0  0  0  0  0  0  0  0
   20.5330   -7.8771   -0.3539 O   0  0  0  0  0  0  0  0  0  0  0  0
   20.1408   -9.0499   -1.0735 C   0  0  1  0  0  0  0  0  0  0  0  0
   20.9643  -10.4642   -0.3736 S   0  0  0  0  0  0  0  0  0  0  0  0
   22.6578  -10.0777   -0.7625 C   0  0  0  0  0  0  0  0  0  0  0  0
   23.4416   -9.3885    0.1552 C   0  0  0  0  0  0  0  0  0  0  0  0
   24.7639   -9.0867   -0.1485 C   0  0  0  0  0  0  0  0  0  0  0  0
   25.3023   -9.4741   -1.3698 C   0  0  0  0  0  0  0  0  0  0  0  0
   24.5184  -10.1634   -2.2875 C   0  0  0  0  0  0  0  0  0  0  0  0
   23.1962  -10.4652   -1.9838 C   0  0  0  0  0  0  0  0  0  0  0  0
   16.1370   -8.6931    0.7999 H   0  0  0  0  0  0  0  0  0  0  0  0
   18.0004   -7.8640   -2.5546 H   0  0  0  0  0  0  0  0  0  0  0  0
   18.3359   -9.4423    0.0438 H   0  0  0  0  0  0  0  0  0  0  0  0
   18.4193  -10.2732   -2.7059 H   0  0  0  0  0  0  0  0  0  0  0  0
   17.9896   -5.8210   -1.1827 H   0  0  0  0  0  0  0  0  0  0  0  0
   17.4975   -5.9795    0.8644 H   0  0  0  0  0  0  0  0  0  0  0  0
   20.2855   -6.4938   -1.8862 H   0  0  0  0  0  0  0  0  0  0  0  0
   19.9271   -4.6083   -0.3081 H   0  0  0  0  0  0  0  0  0  0  0  0
   20.3645   -5.7222    1.0095 H   0  0  0  0  0  0  0  0  0  0  0  0
   22.2085   -5.9552   -1.0018 H   0  0  0  0  0  0  0  0  0  0  0  0
   20.4696   -8.9836   -2.1130 H   0  0  0  0  0  0  0  0  0  0  0  0
   23.0225   -9.0868    1.1060 H   0  0  0  0  0  0  0  0  0  0  0  0
   25.3742   -8.5500    0.5660 H   0  0  0  0  0  0  0  0  0  0  0  0
   24.9376  -10.4650   -3.2384 H   0  0  0  0  0  0  0  0  0  0  0  0
   22.5859  -11.0018   -2.6983 H   0  0  0  0  0  0  0  0  0  0  0  0
   26.7293   -9.1484   -1.6975 C   0  0  0  0  0  0  0  0  0  0  0  0
   26.9702   -9.5291   -2.6901 H   0  0  0  0  0  0  0  0  0  0  0  0
   27.3861   -9.6119   -0.9613 H   0  0  0  0  0  0  0  0  0  0  0  0
   26.8687   -8.0675   -1.6793 H   0  0  0  0  0  0  0  0  0  0  0  0
   13.1805   -8.6432    0.1829 C   0  0  0  0  0  0  0  0  0  0  0  0
   11.8865   -8.7794   -0.3391 C   0  0  0  0  0  0  0  0  0  0  0  0
   10.9277   -9.0376    0.6337 C   0  0  0  0  0  0  0  0  0  0  0  0
   11.6064   -9.1131    2.2257 S   0  0  0  0  0  0  0  0  0  0  0  0
   13.1778   -8.7986    1.5688 C   0  0  0  0  0  0  0  0  0  0  0  0
   14.0255   -8.7400    2.2318 H   0  0  0  0  0  0  0  0  0  0  0  0
    9.8670   -9.1836    0.4900 H   0  0  0  0  0  0  0  0  0  0  0  0
   11.6773   -8.6901   -1.3963 H   0  0  0  0  0  0  0  0  0  0  0  0
  1  2  1  0
  1  4  2  0
  1 42  1  0
  2  3  2  0
  3  5  1  0
  4  5  1  0
  4 23  1  0
  5  6  1  0
  6  7  1  0
  6  9  1  0
  6 24  1  6
  7  8  1  0
  7 15  1  0
  7 25  1  1
  8 26  1  0
  9 10  1  0
  9 11  1  0
  9 27  1  6
 10 28  1  0
 11 12  1  0
 11 14  1  0
 11 29  1  6
 12 13  1  0
 12 30  1  0
 12 31  1  0
 13 32  1  0
 14 15  1  0
 15 16  1  0
 15 33  1  6
 16 17  1  0
 17 18  2  0
 17 22  1  0
 18 19  1  0
 18 34  1  0
 19 20  2  0
 19 35  1  0
 20 21  1  0
 20 38  1  0
 21 22  2  0
 21 36  1  0
 22 37  1  0
 38 39  1  0
 38 40  1  0
 38 41  1  0
 42 43  1  0
 42 46  2  0
 43 44  2  0
 43 49  1  0
 44 45  1  0
 44 48  1  0
 45 46  1  0
 46 47  1  0
M  END
>  <i_m_Source_File_Index>  (13) 
13

>  <b_m_subgroup_collapsed>  (13) 
0

>  <r_exp_dg>  (13) 
-5.04631

>  <s_m_Source_File>  (13) 
galectin3_extra_ligands.sdf

>  <s_m_Source_Path>  (13) 
/efs/home/chaya/odyssey/projects/openfe-benchmark/Galectin

>  <s_m_entry_id>  (13) 
19

>  <s_m_entry_name>  (13) 
galectin3_extra_ligands.13

>  <s_m_subgroup_title>  (13) 
galectin3_extra_ligands

>  <s_m_subgroupid>  (13) 
galectin3_extra_ligands

>  <experimental dG reference units>  (13) 
kcal/mol

>  <experimental dG reference field>  (13) 
r_exp_dg

>  <kJ/mol experimental dG>  (13) 
-21.11376104

>  <kcal/mol experimental dG>  (13) 
-5.04631

$$$$
17o
     RDKit          3D

 49 52  0  0  1  0  0  0  0  0999 V2000
   14.3746   -8.3717   -0.5981 C   0  0  0  0  0  0  0  0  0  0  0  0
   14.3470   -8.0117   -1.8695 N   0  0  0  0  0  0  0  0  0  0  0  0
   15.6495   -7.8341   -2.2967 N   0  0  0  0  0  0  0  0  0  0  0  0
   15.6854   -8.4424   -0.1509 C   0  0  0  0  0  0  0  0  0  0  0  0
   16.4357   -8.0988   -1.2465 N   0  0  0  0  0  0  0  0  0  0  0  0
   17.8723   -7.9717   -1.4752 C   0  0  2  0  0  0  0  0  0  0  0  0
   18.6128   -9.2294   -0.9901 C   0  0  1  0  0  0  0  0  0  0  0  0
   18.2247  -10.3300   -1.7266 O   0  0  0  0  0  0  0  0  0  0  0  0
   18.4278   -6.7273   -0.7622 C   0  0  1  0  0  0  0  0  0  0  0  0
   18.0579   -6.7515    0.5667 O   0  0  0  0  0  0  0  0  0  0  0  0
   19.9644   -6.6641   -0.8562 C   0  0  1  0  0  0  0  0  0  0  0  0
   20.4848   -5.5093   -0.0527 C   0  0  0  0  0  0  0  0  0  0  0  0
   21.8221   -5.3181   -0.3349 O   0  0  0  0  0  0  0  0  0  0  0  0
   20.5330   -7.8771   -0.3539 O   0  0  0  0  0  0  0  0  0  0  0  0
   20.1408   -9.0499   -1.0735 C   0  0  1  0  0  0  0  0  0  0  0  0
   20.9643  -10.4642   -0.3736 S   0  0  0  0  0  0  0  0  0  0  0  0
   22.6578  -10.0777   -0.7625 C   0  0  0  0  0  0  0  0  0  0  0  0
   23.4416   -9.3885    0.1552 C   0  0  0  0  0  0  0  0  0  0  0  0
   24.7639   -9.0867   -0.1485 C   0  0  0  0  0  0  0  0  0  0  0  0
   25.3023   -9.4741   -1.3698 C   0  0  0  0  0  0  0  0  0  0  0  0
   24.5184  -10.1634   -2.2875 C   0  0  0  0  0  0  0  0  0  0  0  0
   23.1962  -10.4652   -1.9838 C   0  0  0  0  0  0  0  0  0  0  0  0
   16.1369   -8.6931    0.7999 H   0  0  0  0  0  0  0  0  0  0  0  0
   18.0004   -7.8640   -2.5546 H   0  0  0  0  0  0  0  0  0  0  0  0
   18.3359   -9.4423    0.0438 H   0  0  0  0  0  0  0  0  0  0  0  0
   18.4193  -10.2732   -2.7059 H   0  0  0  0  0  0  0  0  0  0  0  0
   17.9896   -5.8210   -1.1827 H   0  0  0  0  0  0  0  0  0  0  0  0
   17.4975   -5.9795    0.8644 H   0  0  0  0  0  0  0  0  0  0  0  0
   20.2855   -6.4938   -1.8862 H   0  0  0  0  0  0  0  0  0  0  0  0
   19.9271   -4.6083   -0.3081 H   0  0  0  0  0  0  0  0  0  0  0  0
   20.3645   -5.7222    1.0095 H   0  0  0  0  0  0  0  0  0  0  0  0
   22.2085   -5.9552   -1.0018 H   0  0  0  0  0  0  0  0  0  0  0  0
   20.4696   -8.9836   -2.1130 H   0  0  0  0  0  0  0  0  0  0  0  0
   23.0225   -9.0868    1.1060 H   0  0  0  0  0  0  0  0  0  0  0  0
   25.3742   -8.5500    0.5660 H   0  0  0  0  0  0  0  0  0  0  0  0
   24.9376  -10.4650   -3.2384 H   0  0  0  0  0  0  0  0  0  0  0  0
   22.5859  -11.0018   -2.6983 H   0  0  0  0  0  0  0  0  0  0  0  0
   26.7293   -9.1484   -1.6975 C   0  0  0  0  0  0  0  0  0  0  0  0
   26.9702   -9.5291   -2.6901 H   0  0  0  0  0  0  0  0  0  0  0  0
   27.3861   -9.6119   -0.9613 H   0  0  0  0  0  0  0  0  0  0  0  0
   26.8687   -8.0675   -1.6793 H   0  0  0  0  0  0  0  0  0  0  0  0
   13.1677   -8.6436    0.1630 C   0  0  0  0  0  0  0  0  0  0  0  0
   11.8660   -8.7820   -0.3143 C   0  0  0  0  0  0  0  0  0  0  0  0
   10.9270   -9.0422    0.6896 C   0  0  0  0  0  0  0  0  0  0  0  0
   11.5011   -9.0995    1.9503 C   0  0  0  0  0  0  0  0  0  0  0  0
   13.2117   -8.8330    1.8953 S   0  0  0  0  0  0  0  0  0  0  0  0
   11.6205   -8.6955   -1.3640 H   0  0  0  0  0  0  0  0  0  0  0  0
   11.0149   -9.2807    2.8978 H   0  0  0  0  0  0  0  0  0  0  0  0
    9.8719   -9.1802    0.4974 H   0  0  0  0  0  0  0  0  0  0  0  0
  1  2  1  0
  1  4  2  0
  1 42  1  0
  2  3  2  0
  3  5  1  0
  4  5  1  0
  4 23  1  0
  5  6  1  0
  6  7  1  0
  6  9  1  0
  6 24  1  6
  7  8  1  0
  7 15  1  0
  7 25  1  1
  8 26  1  0
  9 10  1  0
  9 11  1  0
  9 27  1  6
 10 28  1  0
 11 12  1  0
 11 14  1  0
 11 29  1  6
 12 13  1  0
 12 30  1  0
 12 31  1  0
 13 32  1  0
 14 15  1  0
 15 16  1  0
 15 33  1  6
 16 17  1  0
 17 18  2  0
 17 22  1  0
 18 19  1  0
 18 34  1  0
 19 20  2  0
 19 35  1  0
 20 21  1  0
 20 38  1  0
 21 22  2  0
 21 36  1  0
 22 37  1  0
 38 39  1  0
 38 40  1  0
 38 41  1  0
 42 43  2  0
 42 46  1  0
 43 44  1  0
 43 47  1  0
 44 45  2  0
 44 49  1  0
 45 46  1  0
 45 48  1  0
M  END
>  <i_m_Source_File_Index>  (14) 
14

>  <b_m_subgroup_collapsed>  (14) 
0

>  <r_exp_dg>  (14) 
-5.10873

>  <s_m_Source_File>  (14) 
galectin3_extra_ligands.sdf

>  <s_m_Source_Path>  (14) 
/efs/home/chaya/odyssey/projects/openfe-benchmark/Galectin

>  <s_m_entry_id>  (14) 
20

>  <s_m_entry_name>  (14) 
galectin3_extra_ligands.14

>  <s_m_subgroup_title>  (14) 
galectin3_extra_ligands

>  <s_m_subgroupid>  (14) 
galectin3_extra_ligands

>  <experimental dG reference units>  (14) 
kcal/mol

>  <experimental dG reference field>  (14) 
r_exp_dg

>  <kJ/mol experimental dG>  (14) 
-21.374926320000004

>  <kcal/mol experimental dG>  (14) 
-5.10873

$$$$
17f
     RDKit          3D

 52 55  0  0  1  0  0  0  0  0999 V2000
   10.8011   -9.2877    0.2796 C   0  0  0  0  0  0  0  0  0  0  0  0
   11.9594   -9.0271   -0.4571 C   0  0  0  0  0  0  0  0  0  0  0  0
   10.8214   -9.1701    1.6720 C   0  0  0  0  0  0  0  0  0  0  0  0
   11.9975   -8.7929    2.3259 C   0  0  0  0  0  0  0  0  0  0  0  0
   13.1528   -8.5335    1.5842 C   0  0  0  0  0  0  0  0  0  0  0  0
   13.1326   -8.6508    0.1952 C   0  0  0  0  0  0  0  0  0  0  0  0
   14.3746   -8.3717   -0.5984 C   0  0  0  0  0  0  0  0  0  0  0  0
   14.3469   -8.0117   -1.8695 N   0  0  0  0  0  0  0  0  0  0  0  0
   15.6495   -7.8341   -2.2967 N   0  0  0  0  0  0  0  0  0  0  0  0
   15.6852   -8.4424   -0.1508 C   0  0  0  0  0  0  0  0  0  0  0  0
   16.4360   -8.0988   -1.2459 N   0  0  0  0  0  0  0  0  0  0  0  0
   17.8723   -7.9717   -1.4752 C   0  0  2  0  0  0  0  0  0  0  0  0
   18.6128   -9.2294   -0.9901 C   0  0  1  0  0  0  0  0  0  0  0  0
   18.2247  -10.3300   -1.7266 O   0  0  0  0  0  0  0  0  0  0  0  0
   18.4278   -6.7273   -0.7622 C   0  0  1  0  0  0  0  0  0  0  0  0
   18.0594   -6.7515    0.5675 O   0  0  0  0  0  0  0  0  0  0  0  0
   19.9644   -6.6641   -0.8562 C   0  0  1  0  0  0  0  0  0  0  0  0
   20.4848   -5.5093   -0.0527 C   0  0  0  0  0  0  0  0  0  0  0  0
   21.8221   -5.3181   -0.3349 O   0  0  0  0  0  0  0  0  0  0  0  0
   20.5330   -7.8771   -0.3539 O   0  0  0  0  0  0  0  0  0  0  0  0
   20.1408   -9.0499   -1.0735 C   0  0  1  0  0  0  0  0  0  0  0  0
   20.9643  -10.4642   -0.3736 S   0  0  0  0  0  0  0  0  0  0  0  0
   22.6578  -10.0777   -0.7625 C   0  0  0  0  0  0  0  0  0  0  0  0
   23.4416   -9.3885    0.1552 C   0  0  0  0  0  0  0  0  0  0  0  0
   24.7639   -9.0867   -0.1485 C   0  0  0  0  0  0  0  0  0  0  0  0
   25.3023   -9.4741   -1.3698 C   0  0  0  0  0  0  0  0  0  0  0  0
   24.5184  -10.1634   -2.2875 C   0  0  0  0  0  0  0  0  0  0  0  0
   23.1962  -10.4652   -1.9838 C   0  0  0  0  0  0  0  0  0  0  0  0
   16.1370   -8.6931    0.7999 H   0  0  0  0  0  0  0  0  0  0  0  0
   18.0004   -7.8640   -2.5546 H   0  0  0  0  0  0  0  0  0  0  0  0
   18.3359   -9.4423    0.0438 H   0  0  0  0  0  0  0  0  0  0  0  0
   18.4193  -10.2732   -2.7059 H   0  0  0  0  0  0  0  0  0  0  0  0
   17.9896   -5.8210   -1.1827 H   0  0  0  0  0  0  0  0  0  0  0  0
   17.4974   -5.9795    0.8644 H   0  0  0  0  0  0  0  0  0  0  0  0
   20.2855   -6.4938   -1.8862 H   0  0  0  0  0  0  0  0  0  0  0  0
   19.9271   -4.6083   -0.3081 H   0  0  0  0  0  0  0  0  0  0  0  0
   20.3645   -5.7222    1.0095 H   0  0  0  0  0  0  0  0  0  0  0  0
   22.2085   -5.9552   -1.0018 H   0  0  0  0  0  0  0  0  0  0  0  0
   20.4696   -8.9836   -2.1130 H   0  0  0  0  0  0  0  0  0  0  0  0
   23.0225   -9.0868    1.1060 H   0  0  0  0  0  0  0  0  0  0  0  0
   25.3742   -8.5500    0.5660 H   0  0  0  0  0  0  0  0  0  0  0  0
   24.9376  -10.4650   -3.2384 H   0  0  0  0  0  0  0  0  0  0  0  0
   22.5859  -11.0018   -2.6983 H   0  0  0  0  0  0  0  0  0  0  0  0
    9.6799   -9.6475   -0.3452 F   0  0  0  0  0  0  0  0  0  0  0  0
   12.0181   -8.6804    3.6540 F   0  0  0  0  0  0  0  0  0  0  0  0
   26.7293   -9.1484   -1.6975 C   0  0  0  0  0  0  0  0  0  0  0  0
   26.9702   -9.5291   -2.6901 H   0  0  0  0  0  0  0  0  0  0  0  0
   27.3861   -9.6119   -0.9613 H   0  0  0  0  0  0  0  0  0  0  0  0
   26.8687   -8.0675   -1.6793 H   0  0  0  0  0  0  0  0  0  0  0  0
   11.9466   -9.1172   -1.5332 H   0  0  0  0  0  0  0  0  0  0  0  0
    9.9276   -9.3709    2.2440 H   0  0  0  0  0  0  0  0  0  0  0  0
   14.0631   -8.2418    2.0869 H   0  0  0  0  0  0  0  0  0  0  0  0
  1  2  2  0
  1  3  1  0
  1 44  1  0
  2  6  1  0
  2 50  1  0
  3  4  2  0
  3 51  1  0
  4  5  1  0
  4 45  1  0
  5  6  2  0
  5 52  1  0
  6  7  1  0
  7  8  1  0
  7 10  2  0
  8  9  2  0
  9 11  1  0
 10 11  1  0
 10 29  1  0
 11 12  1  0
 12 13  1  0
 12 15  1  0
 12 30  1  6
 13 14  1  0
 13 21  1  0
 13 31  1  1
 14 32  1  0
 15 16  1  0
 15 17  1  0
 15 33  1  6
 16 34  1  0
 17 18  1  0
 17 20  1  0
 17 35  1  6
 18 19  1  0
 18 36  1  0
 18 37  1  0
 19 38  1  0
 20 21  1  0
 21 22  1  0
 21 39  1  6
 22 23  1  0
 23 24  2  0
 23 28  1  0
 24 25  1  0
 24 40  1  0
 25 26  2  0
 25 41  1  0
 26 27  1  0
 26 46  1  0
 27 28  2  0
 27 42  1  0
 28 43  1  0
 46 47  1  0
 46 48  1  0
 46 49  1  0
M  END
>  <i_m_Source_File_Index>  (15) 
15

>  <b_m_subgroup_collapsed>  (15) 
0

>  <r_exp_dg>  (15) 
-6.581

>  <s_m_Source_File>  (15) 
galectin3_extra_ligands.sdf

>  <s_m_Source_Path>  (15) 
/efs/home/chaya/odyssey/projects/openfe-benchmark/Galectin

>  <s_m_entry_id>  (15) 
21

>  <s_m_entry_name>  (15) 
galectin3_extra_ligands.15

>  <s_m_subgroup_title>  (15) 
galectin3_extra_ligands

>  <s_m_subgroupid>  (15) 
galectin3_extra_ligands

>  <experimental dG reference units>  (15) 
kcal/mol

>  <experimental dG reference field>  (15) 
r_exp_dg

>  <kJ/mol experimental dG>  (15) 
-27.534904000000004

>  <kcal/mol experimental dG>  (15) 
-6.581

$$$$
17e
     RDKit          3D

 52 55  0  0  1  0  0  0  0  0999 V2000
   10.8011   -9.2877    0.2796 C   0  0  0  0  0  0  0  0  0  0  0  0
   11.9594   -9.0271   -0.4571 C   0  0  0  0  0  0  0  0  0  0  0  0
   10.8214   -9.1701    1.6720 C   0  0  0  0  0  0  0  0  0  0  0  0
   11.9975   -8.7929    2.3259 C   0  0  0  0  0  0  0  0  0  0  0  0
   13.1528   -8.5335    1.5842 C   0  0  0  0  0  0  0  0  0  0  0  0
   13.1326   -8.6508    0.1952 C   0  0  0  0  0  0  0  0  0  0  0  0
   14.3746   -8.3717   -0.5984 C   0  0  0  0  0  0  0  0  0  0  0  0
   14.3469   -8.0117   -1.8695 N   0  0  0  0  0  0  0  0  0  0  0  0
   15.6495   -7.8341   -2.2967 N   0  0  0  0  0  0  0  0  0  0  0  0
   15.6852   -8.4424   -0.1508 C   0  0  0  0  0  0  0  0  0  0  0  0
   16.4360   -8.0988   -1.2459 N   0  0  0  0  0  0  0  0  0  0  0  0
   17.8723   -7.9717   -1.4752 C   0  0  2  0  0  0  0  0  0  0  0  0
   18.6128   -9.2294   -0.9901 C   0  0  1  0  0  0  0  0  0  0  0  0
   18.2247  -10.3300   -1.7266 O   0  0  0  0  0  0  0  0  0  0  0  0
   18.4278   -6.7273   -0.7622 C   0  0  1  0  0  0  0  0  0  0  0  0
   18.0594   -6.7515    0.5675 O   0  0  0  0  0  0  0  0  0  0  0  0
   19.9644   -6.6641   -0.8562 C   0  0  1  0  0  0  0  0  0  0  0  0
   20.4848   -5.5093   -0.0527 C   0  0  0  0  0  0  0  0  0  0  0  0
   21.8221   -5.3181   -0.3349 O   0  0  0  0  0  0  0  0  0  0  0  0
   20.5330   -7.8771   -0.3539 O   0  0  0  0  0  0  0  0  0  0  0  0
   20.1408   -9.0499   -1.0735 C   0  0  1  0  0  0  0  0  0  0  0  0
   20.9643  -10.4642   -0.3736 S   0  0  0  0  0  0  0  0  0  0  0  0
   22.6578  -10.0777   -0.7625 C   0  0  0  0  0  0  0  0  0  0  0  0
   23.4416   -9.3885    0.1552 C   0  0  0  0  0  0  0  0  0  0  0  0
   24.7639   -9.0867   -0.1485 C   0  0  0  0  0  0  0  0  0  0  0  0
   25.3023   -9.4741   -1.3698 C   0  0  0  0  0  0  0  0  0  0  0  0
   24.5184  -10.1634   -2.2875 C   0  0  0  0  0  0  0  0  0  0  0  0
   23.1962  -10.4652   -1.9838 C   0  0  0  0  0  0  0  0  0  0  0  0
   16.1370   -8.6931    0.7999 H   0  0  0  0  0  0  0  0  0  0  0  0
   18.0004   -7.8640   -2.5546 H   0  0  0  0  0  0  0  0  0  0  0  0
   18.3359   -9.4423    0.0438 H   0  0  0  0  0  0  0  0  0  0  0  0
   18.4193  -10.2732   -2.7059 H   0  0  0  0  0  0  0  0  0  0  0  0
   17.9896   -5.8210   -1.1827 H   0  0  0  0  0  0  0  0  0  0  0  0
   17.4974   -5.9795    0.8644 H   0  0  0  0  0  0  0  0  0  0  0  0
   20.2855   -6.4938   -1.8862 H   0  0  0  0  0  0  0  0  0  0  0  0
   19.9271   -4.6083   -0.3081 H   0  0  0  0  0  0  0  0  0  0  0  0
   20.3645   -5.7222    1.0095 H   0  0  0  0  0  0  0  0  0  0  0  0
   22.2085   -5.9552   -1.0018 H   0  0  0  0  0  0  0  0  0  0  0  0
   20.4696   -8.9836   -2.1130 H   0  0  0  0  0  0  0  0  0  0  0  0
   23.0225   -9.0868    1.1060 H   0  0  0  0  0  0  0  0  0  0  0  0
   25.3742   -8.5500    0.5660 H   0  0  0  0  0  0  0  0  0  0  0  0
   24.9376  -10.4650   -3.2384 H   0  0  0  0  0  0  0  0  0  0  0  0
   22.5859  -11.0018   -2.6983 H   0  0  0  0  0  0  0  0  0  0  0  0
   12.0181   -8.6804    3.6540 F   0  0  0  0  0  0  0  0  0  0  0  0
   26.7293   -9.1484   -1.6975 C   0  0  0  0  0  0  0  0  0  0  0  0
   26.9702   -9.5291   -2.6901 H   0  0  0  0  0  0  0  0  0  0  0  0
   27.3861   -9.6119   -0.9613 H   0  0  0  0  0  0  0  0  0  0  0  0
   26.8687   -8.0675   -1.6793 H   0  0  0  0  0  0  0  0  0  0  0  0
    9.7177   -9.4181    2.3772 F   0  0  0  0  0  0  0  0  0  0  0  0
    9.8930   -9.5792   -0.2272 H   0  0  0  0  0  0  0  0  0  0  0  0
   11.9466   -9.1172   -1.5332 H   0  0  0  0  0  0  0  0  0  0  0  0
   14.0631   -8.2418    2.0869 H   0  0  0  0  0  0  0  0  0  0  0  0
  1  2  2  0
  1  3  1  0
  1 50  1  0
  2  6  1  0
  2 51  1  0
  3  4  2  0
  3 49  1  0
  4  5  1  0
  4 44  1  0
  5  6  2  0
  5 52  1  0
  6  7  1  0
  7  8  1  0
  7 10  2  0
  8  9  2  0
  9 11  1  0
 10 11  1  0
 10 29  1  0
 11 12  1  0
 12 13  1  0
 12 15  1  0
 12 30  1  6
 13 14  1  0
 13 21  1  0
 13 31  1  1
 14 32  1  0
 15 16  1  0
 15 17  1  0
 15 33  1  6
 16 34  1  0
 17 18  1  0
 17 20  1  0
 17 35  1  6
 18 19  1  0
 18 36  1  0
 18 37  1  0
 19 38  1  0
 20 21  1  0
 21 22  1  0
 21 39  1  6
 22 23  1  0
 23 24  2  0
 23 28  1  0
 24 25  1  0
 24 40  1  0
 25 26  2  0
 25 41  1  0
 26 27  1  0
 26 45  1  0
 27 28  2  0
 27 42  1  0
 28 43  1  0
 45 46  1  0
 45 47  1  0
 45 48  1  0
M  END
>  <i_m_Source_File_Index>  (16) 
16

>  <b_m_subgroup_collapsed>  (16) 
0

>  <r_exp_dg>  (16) 
-6.89697

>  <s_m_Source_File>  (16) 
galectin3_extra_ligands.sdf

>  <s_m_Source_Path>  (16) 
/efs/home/chaya/odyssey/projects/openfe-benchmark/Galectin

>  <s_m_entry_id>  (16) 
22

>  <s_m_entry_name>  (16) 
galectin3_extra_ligands.16

>  <s_m_subgroup_title>  (16) 
galectin3_extra_ligands

>  <s_m_subgroupid>  (16) 
galectin3_extra_ligands

>  <experimental dG reference units>  (16) 
kcal/mol

>  <experimental dG reference field>  (16) 
r_exp_dg

>  <kJ/mol experimental dG>  (16) 
-28.856922479999998

>  <kcal/mol experimental dG>  (16) 
-6.89697

$$$$
17g
     RDKit          3D

 52 55  0  0  1  0  0  0  0  0999 V2000
   10.8011   -9.2877    0.2796 C   0  0  0  0  0  0  0  0  0  0  0  0
   11.9594   -9.0271   -0.4571 C   0  0  0  0  0  0  0  0  0  0  0  0
   10.8214   -9.1701    1.6720 C   0  0  0  0  0  0  0  0  0  0  0  0
   11.9975   -8.7929    2.3259 C   0  0  0  0  0  0  0  0  0  0  0  0
   13.1528   -8.5335    1.5842 C   0  0  0  0  0  0  0  0  0  0  0  0
   13.1326   -8.6508    0.1952 C   0  0  0  0  0  0  0  0  0  0  0  0
   14.3746   -8.3717   -0.5984 C   0  0  0  0  0  0  0  0  0  0  0  0
   14.3469   -8.0117   -1.8695 N   0  0  0  0  0  0  0  0  0  0  0  0
   15.6495   -7.8341   -2.2967 N   0  0  0  0  0  0  0  0  0  0  0  0
   15.6852   -8.4424   -0.1508 C   0  0  0  0  0  0  0  0  0  0  0  0
   16.4360   -8.0988   -1.2459 N   0  0  0  0  0  0  0  0  0  0  0  0
   17.8723   -7.9717   -1.4752 C   0  0  2  0  0  0  0  0  0  0  0  0
   18.6128   -9.2294   -0.9901 C   0  0  1  0  0  0  0  0  0  0  0  0
   18.2247  -10.3300   -1.7266 O   0  0  0  0  0  0  0  0  0  0  0  0
   18.4278   -6.7273   -0.7622 C   0  0  1  0  0  0  0  0  0  0  0  0
   18.0594   -6.7515    0.5675 O   0  0  0  0  0  0  0  0  0  0  0  0
   19.9644   -6.6641   -0.8562 C   0  0  1  0  0  0  0  0  0  0  0  0
   20.4848   -5.5093   -0.0527 C   0  0  0  0  0  0  0  0  0  0  0  0
   21.8221   -5.3181   -0.3349 O   0  0  0  0  0  0  0  0  0  0  0  0
   20.5330   -7.8771   -0.3539 O   0  0  0  0  0  0  0  0  0  0  0  0
   20.1408   -9.0499   -1.0735 C   0  0  1  0  0  0  0  0  0  0  0  0
   20.9643  -10.4642   -0.3736 S   0  0  0  0  0  0  0  0  0  0  0  0
   22.6578  -10.0777   -0.7625 C   0  0  0  0  0  0  0  0  0  0  0  0
   23.4416   -9.3885    0.1552 C   0  0  0  0  0  0  0  0  0  0  0  0
   24.7639   -9.0867   -0.1485 C   0  0  0  0  0  0  0  0  0  0  0  0
   25.3023   -9.4741   -1.3698 C   0  0  0  0  0  0  0  0  0  0  0  0
   24.5184  -10.1634   -2.2875 C   0  0  0  0  0  0  0  0  0  0  0  0
   23.1962  -10.4652   -1.9838 C   0  0  0  0  0  0  0  0  0  0  0  0
   16.1370   -8.6931    0.7999 H   0  0  0  0  0  0  0  0  0  0  0  0
   18.0004   -7.8640   -2.5546 H   0  0  0  0  0  0  0  0  0  0  0  0
   18.3359   -9.4423    0.0438 H   0  0  0  0  0  0  0  0  0  0  0  0
   18.4193  -10.2732   -2.7059 H   0  0  0  0  0  0  0  0  0  0  0  0
   17.9896   -5.8210   -1.1827 H   0  0  0  0  0  0  0  0  0  0  0  0
   17.4974   -5.9795    0.8644 H   0  0  0  0  0  0  0  0  0  0  0  0
   20.2855   -6.4938   -1.8862 H   0  0  0  0  0  0  0  0  0  0  0  0
   19.9271   -4.6083   -0.3081 H   0  0  0  0  0  0  0  0  0  0  0  0
   20.3645   -5.7222    1.0095 H   0  0  0  0  0  0  0  0  0  0  0  0
   22.2085   -5.9552   -1.0018 H   0  0  0  0  0  0  0  0  0  0  0  0
   20.4696   -8.9836   -2.1130 H   0  0  0  0  0  0  0  0  0  0  0  0
   23.0225   -9.0868    1.1060 H   0  0  0  0  0  0  0  0  0  0  0  0
   25.3742   -8.5500    0.5660 H   0  0  0  0  0  0  0  0  0  0  0  0
   24.9376  -10.4650   -3.2384 H   0  0  0  0  0  0  0  0  0  0  0  0
   22.5859  -11.0018   -2.6983 H   0  0  0  0  0  0  0  0  0  0  0  0
    9.6799   -9.6475   -0.3452 F   0  0  0  0  0  0  0  0  0  0  0  0
   12.0181   -8.6804    3.6540 F   0  0  0  0  0  0  0  0  0  0  0  0
   26.7293   -9.1484   -1.6975 C   0  0  0  0  0  0  0  0  0  0  0  0
   26.9702   -9.5291   -2.6901 H   0  0  0  0  0  0  0  0  0  0  0  0
   27.3861   -9.6119   -0.9613 H   0  0  0  0  0  0  0  0  0  0  0  0
   26.8687   -8.0675   -1.6793 H   0  0  0  0  0  0  0  0  0  0  0  0
   11.9466   -9.1172   -1.5332 H   0  0  0  0  0  0  0  0  0  0  0  0
    9.7182   -9.4180    2.3779 F   0  0  0  0  0  0  0  0  0  0  0  0
   14.0631   -8.2418    2.0869 H   0  0  0  0  0  0  0  0  0  0  0  0
  1  2  2  0
  1  3  1  0
  1 44  1  0
  2  6  1  0
  2 50  1  0
  3  4  2  0
  3 51  1  0
  4  5  1  0
  4 45  1  0
  5  6  2  0
  5 52  1  0
  6  7  1  0
  7  8  1  0
  7 10  2  0
  8  9  2  0
  9 11  1  0
 10 11  1  0
 10 29  1  0
 11 12  1  0
 12 13  1  0
 12 15  1  0
 12 30  1  6
 13 14  1  0
 13 21  1  0
 13 31  1  1
 14 32  1  0
 15 16  1  0
 15 17  1  0
 15 33  1  6
 16 34  1  0
 17 18  1  0
 17 20  1  0
 17 35  1  6
 18 19  1  0
 18 36  1  0
 18 37  1  0
 19 38  1  0
 20 21  1  0
 21 22  1  0
 21 39  1  6
 22 23  1  0
 23 24  2  0
 23 28  1  0
 24 25  1  0
 24 40  1  0
 25 26  2  0
 25 41  1  0
 26 27  1  0
 26 46  1  0
 27 28  2  0
 27 42  1  0
 28 43  1  0
 46 47  1  0
 46 48  1  0
 46 49  1  0
M  END
>  <i_m_Source_File_Index>  (17) 
17

>  <b_m_subgroup_collapsed>  (17) 
0

>  <r_exp_dg>  (17) 
-7.20868

>  <s_m_Source_File>  (17) 
galectin3_extra_ligands.sdf

>  <s_m_Source_Path>  (17) 
/efs/home/chaya/odyssey/projects/openfe-benchmark/Galectin

>  <s_m_entry_id>  (17) 
23

>  <s_m_entry_name>  (17) 
galectin3_extra_ligands.17

>  <s_m_subgroup_title>  (17) 
galectin3_extra_ligands

>  <s_m_subgroupid>  (17) 
galectin3_extra_ligands

>  <experimental dG reference units>  (17) 
kcal/mol

>  <experimental dG reference field>  (17) 
r_exp_dg

>  <kJ/mol experimental dG>  (17) 
-30.161117120000004

>  <kcal/mol experimental dG>  (17) 
-7.20868

$$$$
17a
     RDKit          3D

 52 55  0  0  1  0  0  0  0  0999 V2000
   10.8011   -9.2877    0.2796 C   0  0  0  0  0  0  0  0  0  0  0  0
   11.9594   -9.0271   -0.4571 C   0  0  0  0  0  0  0  0  0  0  0  0
   10.8214   -9.1701    1.6720 C   0  0  0  0  0  0  0  0  0  0  0  0
   11.9975   -8.7929    2.3259 C   0  0  0  0  0  0  0  0  0  0  0  0
   13.1528   -8.5335    1.5842 C   0  0  0  0  0  0  0  0  0  0  0  0
   13.1326   -8.6508    0.1952 C   0  0  0  0  0  0  0  0  0  0  0  0
   14.3746   -8.3717   -0.5984 C   0  0  0  0  0  0  0  0  0  0  0  0
   14.3469   -8.0117   -1.8695 N   0  0  0  0  0  0  0  0  0  0  0  0
   15.6495   -7.8341   -2.2967 N   0  0  0  0  0  0  0  0  0  0  0  0
   15.6852   -8.4424   -0.1508 C   0  0  0  0  0  0  0  0  0  0  0  0
   16.4360   -8.0988   -1.2459 N   0  0  0  0  0  0  0  0  0  0  0  0
   17.8723   -7.9717   -1.4752 C   0  0  2  0  0  0  0  0  0  0  0  0
   18.6128   -9.2294   -0.9901 C   0  0  1  0  0  0  0  0  0  0  0  0
   18.2247  -10.3300   -1.7266 O   0  0  0  0  0  0  0  0  0  0  0  0
   18.4278   -6.7273   -0.7622 C   0  0  1  0  0  0  0  0  0  0  0  0
   18.0594   -6.7515    0.5675 O   0  0  0  0  0  0  0  0  0  0  0  0
   19.9644   -6.6641   -0.8562 C   0  0  1  0  0  0  0  0  0  0  0  0
   20.4848   -5.5093   -0.0527 C   0  0  0  0  0  0  0  0  0  0  0  0
   21.8221   -5.3181   -0.3349 O   0  0  0  0  0  0  0  0  0  0  0  0
   20.5330   -7.8771   -0.3539 O   0  0  0  0  0  0  0  0  0  0  0  0
   20.1408   -9.0499   -1.0735 C   0  0  1  0  0  0  0  0  0  0  0  0
   20.9643  -10.4642   -0.3736 S   0  0  0  0  0  0  0  0  0  0  0  0
   22.6578  -10.0777   -0.7625 C   0  0  0  0  0  0  0  0  0  0  0  0
   23.4416   -9.3885    0.1552 C   0  0  0  0  0  0  0  0  0  0  0  0
   24.7639   -9.0867   -0.1485 C   0  0  0  0  0  0  0  0  0  0  0  0
   25.3023   -9.4741   -1.3698 C   0  0  0  0  0  0  0  0  0  0  0  0
   24.5184  -10.1634   -2.2875 C   0  0  0  0  0  0  0  0  0  0  0  0
   23.1962  -10.4652   -1.9838 C   0  0  0  0  0  0  0  0  0  0  0  0
   16.1370   -8.6931    0.7999 H   0  0  0  0  0  0  0  0  0  0  0  0
   18.0004   -7.8640   -2.5546 H   0  0  0  0  0  0  0  0  0  0  0  0
   18.3359   -9.4423    0.0438 H   0  0  0  0  0  0  0  0  0  0  0  0
   18.4193  -10.2732   -2.7059 H   0  0  0  0  0  0  0  0  0  0  0  0
   17.9896   -5.8210   -1.1827 H   0  0  0  0  0  0  0  0  0  0  0  0
   17.4974   -5.9795    0.8644 H   0  0  0  0  0  0  0  0  0  0  0  0
   20.2855   -6.4938   -1.8862 H   0  0  0  0  0  0  0  0  0  0  0  0
   19.9271   -4.6083   -0.3081 H   0  0  0  0  0  0  0  0  0  0  0  0
   20.3645   -5.7222    1.0095 H   0  0  0  0  0  0  0  0  0  0  0  0
   22.2085   -5.9552   -1.0018 H   0  0  0  0  0  0  0  0  0  0  0  0
   20.4696   -8.9836   -2.1130 H   0  0  0  0  0  0  0  0  0  0  0  0
   23.0225   -9.0868    1.1060 H   0  0  0  0  0  0  0  0  0  0  0  0
   25.3742   -8.5500    0.5660 H   0  0  0  0  0  0  0  0  0  0  0  0
   24.9376  -10.4650   -3.2384 H   0  0  0  0  0  0  0  0  0  0  0  0
   22.5859  -11.0018   -2.6983 H   0  0  0  0  0  0  0  0  0  0  0  0
   26.7293   -9.1484   -1.6975 C   0  0  0  0  0  0  0  0  0  0  0  0
   26.9702   -9.5291   -2.6901 H   0  0  0  0  0  0  0  0  0  0  0  0
   27.3861   -9.6119   -0.9613 H   0  0  0  0  0  0  0  0  0  0  0  0
   26.8687   -8.0675   -1.6793 H   0  0  0  0  0  0  0  0  0  0  0  0
    9.8930   -9.5792   -0.2272 H   0  0  0  0  0  0  0  0  0  0  0  0
   11.9466   -9.1172   -1.5332 H   0  0  0  0  0  0  0  0  0  0  0  0
   12.0118   -8.7024    3.4020 H   0  0  0  0  0  0  0  0  0  0  0  0
   14.0631   -8.2418    2.0869 H   0  0  0  0  0  0  0  0  0  0  0  0
    9.9276   -9.3709    2.2440 H   0  0  0  0  0  0  0  0  0  0  0  0
  1  2  2  0
  1  3  1  0
  1 48  1  0
  2  6  1  0
  2 49  1  0
  3  4  2  0
  3 52  1  0
  4  5  1  0
  4 50  1  0
  5  6  2  0
  5 51  1  0
  6  7  1  0
  7  8  1  0
  7 10  2  0
  8  9  2  0
  9 11  1  0
 10 11  1  0
 10 29  1  0
 11 12  1  0
 12 13  1  0
 12 15  1  0
 12 30  1  6
 13 14  1  0
 13 21  1  0
 13 31  1  1
 14 32  1  0
 15 16  1  0
 15 17  1  0
 15 33  1  6
 16 34  1  0
 17 18  1  0
 17 20  1  0
 17 35  1  6
 18 19  1  0
 18 36  1  0
 18 37  1  0
 19 38  1  0
 20 21  1  0
 21 22  1  0
 21 39  1  6
 22 23  1  0
 23 24  2  0
 23 28  1  0
 24 25  1  0
 24 40  1  0
 25 26  2  0
 25 41  1  0
 26 27  1  0
 26 44  1  0
 27 28  2  0
 27 42  1  0
 28 43  1  0
 44 45  1  0
 44 46  1  0
 44 47  1  0
M  END
>  <i_m_Source_File_Index>  (18) 
18

>  <b_m_subgroup_collapsed>  (18) 
0

>  <r_exp_dg>  (18) 
-5.53273

>  <s_m_Source_File>  (18) 
galectin3_extra_ligands.sdf

>  <s_m_Source_Path>  (18) 
/efs/home/chaya/odyssey/projects/openfe-benchmark/Galectin

>  <s_m_entry_id>  (18) 
24

>  <s_m_entry_name>  (18) 
galectin3_extra_ligands.18

>  <s_m_subgroup_title>  (18) 
galectin3_extra_ligands

>  <s_m_subgroupid>  (18) 
galectin3_extra_ligands

>  <experimental dG reference units>  (18) 
kcal/mol

>  <experimental dG reference field>  (18) 
r_exp_dg

>  <kJ/mol experimental dG>  (18) 
-23.14894232

>  <kcal/mol experimental dG>  (18) 
-5.53273

$$$$
17j
     RDKit          3D

 52 55  0  0  1  0  0  0  0  0999 V2000
   10.8011   -9.2877    0.2796 C   0  0  0  0  0  0  0  0  0  0  0  0
   11.9594   -9.0271   -0.4571 C   0  0  0  0  0  0  0  0  0  0  0  0
   10.8214   -9.1701    1.6720 C   0  0  0  0  0  0  0  0  0  0  0  0
   11.9975   -8.7929    2.3259 C   0  0  0  0  0  0  0  0  0  0  0  0
   13.1528   -8.5335    1.5842 C   0  0  0  0  0  0  0  0  0  0  0  0
   13.1326   -8.6508    0.1952 C   0  0  0  0  0  0  0  0  0  0  0  0
   14.3746   -8.3717   -0.5984 C   0  0  0  0  0  0  0  0  0  0  0  0
   14.3469   -8.0117   -1.8695 N   0  0  0  0  0  0  0  0  0  0  0  0
   15.6495   -7.8341   -2.2967 N   0  0  0  0  0  0  0  0  0  0  0  0
   15.6852   -8.4424   -0.1508 C   0  0  0  0  0  0  0  0  0  0  0  0
   16.4360   -8.0988   -1.2459 N   0  0  0  0  0  0  0  0  0  0  0  0
   17.8723   -7.9717   -1.4752 C   0  0  2  0  0  0  0  0  0  0  0  0
   18.6128   -9.2294   -0.9901 C   0  0  1  0  0  0  0  0  0  0  0  0
   18.2247  -10.3300   -1.7266 O   0  0  0  0  0  0  0  0  0  0  0  0
   18.4278   -6.7273   -0.7622 C   0  0  1  0  0  0  0  0  0  0  0  0
   18.0594   -6.7515    0.5675 O   0  0  0  0  0  0  0  0  0  0  0  0
   19.9644   -6.6641   -0.8562 C   0  0  1  0  0  0  0  0  0  0  0  0
   20.4848   -5.5093   -0.0527 C   0  0  0  0  0  0  0  0  0  0  0  0
   21.8221   -5.3181   -0.3349 O   0  0  0  0  0  0  0  0  0  0  0  0
   20.5330   -7.8771   -0.3539 O   0  0  0  0  0  0  0  0  0  0  0  0
   20.1408   -9.0499   -1.0735 C   0  0  1  0  0  0  0  0  0  0  0  0
   20.9643  -10.4642   -0.3736 S   0  0  0  0  0  0  0  0  0  0  0  0
   22.6578  -10.0777   -0.7625 C   0  0  0  0  0  0  0  0  0  0  0  0
   23.4416   -9.3885    0.1552 C   0  0  0  0  0  0  0  0  0  0  0  0
   24.7639   -9.0867   -0.1485 C   0  0  0  0  0  0  0  0  0  0  0  0
   25.3023   -9.4741   -1.3698 C   0  0  0  0  0  0  0  0  0  0  0  0
   24.5184  -10.1634   -2.2875 C   0  0  0  0  0  0  0  0  0  0  0  0
   23.1962  -10.4652   -1.9838 C   0  0  0  0  0  0  0  0  0  0  0  0
   16.1370   -8.6931    0.7999 H   0  0  0  0  0  0  0  0  0  0  0  0
   18.0004   -7.8640   -2.5546 H   0  0  0  0  0  0  0  0  0  0  0  0
   18.3359   -9.4423    0.0438 H   0  0  0  0  0  0  0  0  0  0  0  0
   18.4193  -10.2732   -2.7059 H   0  0  0  0  0  0  0  0  0  0  0  0
   17.9896   -5.8210   -1.1827 H   0  0  0  0  0  0  0  0  0  0  0  0
   17.4974   -5.9795    0.8644 H   0  0  0  0  0  0  0  0  0  0  0  0
   20.2855   -6.4938   -1.8862 H   0  0  0  0  0  0  0  0  0  0  0  0
   19.9271   -4.6083   -0.3081 H   0  0  0  0  0  0  0  0  0  0  0  0
   20.3645   -5.7222    1.0095 H   0  0  0  0  0  0  0  0  0  0  0  0
   22.2085   -5.9552   -1.0018 H   0  0  0  0  0  0  0  0  0  0  0  0
   20.4696   -8.9836   -2.1130 H   0  0  0  0  0  0  0  0  0  0  0  0
   23.0225   -9.0868    1.1060 H   0  0  0  0  0  0  0  0  0  0  0  0
   25.3742   -8.5500    0.5660 H   0  0  0  0  0  0  0  0  0  0  0  0
   24.9376  -10.4650   -3.2384 H   0  0  0  0  0  0  0  0  0  0  0  0
   22.5859  -11.0018   -2.6983 H   0  0  0  0  0  0  0  0  0  0  0  0
   26.7293   -9.1484   -1.6975 C   0  0  0  0  0  0  0  0  0  0  0  0
   26.9702   -9.5291   -2.6901 H   0  0  0  0  0  0  0  0  0  0  0  0
   27.3861   -9.6119   -0.9613 H   0  0  0  0  0  0  0  0  0  0  0  0
   26.8687   -8.0675   -1.6793 H   0  0  0  0  0  0  0  0  0  0  0  0
    9.3890   -9.4920    2.5872 Cl  0  0  0  0  0  0  0  0  0  0  0  0
    9.8930   -9.5792   -0.2272 H   0  0  0  0  0  0  0  0  0  0  0  0
   11.9466   -9.1172   -1.5332 H   0  0  0  0  0  0  0  0  0  0  0  0
   12.0118   -8.7024    3.4020 H   0  0  0  0  0  0  0  0  0  0  0  0
   14.0631   -8.2418    2.0869 H   0  0  0  0  0  0  0  0  0  0  0  0
  1  2  2  0
  1  3  1  0
  1 49  1  0
  2  6  1  0
  2 50  1  0
  3  4  2  0
  3 48  1  0
  4  5  1  0
  4 51  1  0
  5  6  2  0
  5 52  1  0
  6  7  1  0
  7  8  1  0
  7 10  2  0
  8  9  2  0
  9 11  1  0
 10 11  1  0
 10 29  1  0
 11 12  1  0
 12 13  1  0
 12 15  1  0
 12 30  1  6
 13 14  1  0
 13 21  1  0
 13 31  1  1
 14 32  1  0
 15 16  1  0
 15 17  1  0
 15 33  1  6
 16 34  1  0
 17 18  1  0
 17 20  1  0
 17 35  1  6
 18 19  1  0
 18 36  1  0
 18 37  1  0
 19 38  1  0
 20 21  1  0
 21 22  1  0
 21 39  1  6
 22 23  1  0
 23 24  2  0
 23 28  1  0
 24 25  1  0
 24 40  1  0
 25 26  2  0
 25 41  1  0
 26 27  1  0
 26 44  1  0
 27 28  2  0
 27 42  1  0
 28 43  1  0
 44 45  1  0
 44 46  1  0
 44 47  1  0
M  END
>  <i_m_Source_File_Index>  (19) 
19

>  <b_m_subgroup_collapsed>  (19) 
0

>  <r_exp_dg>  (19) 
-6.44095

>  <s_m_Source_File>  (19) 
galectin3_extra_ligands.sdf

>  <s_m_Source_Path>  (19) 
/efs/home/chaya/odyssey/projects/openfe-benchmark/Galectin

>  <s_m_entry_id>  (19) 
25

>  <s_m_entry_name>  (19) 
galectin3_extra_ligands.19

>  <s_m_subgroup_title>  (19) 
galectin3_extra_ligands

>  <s_m_subgroupid>  (19) 
galectin3_extra_ligands

>  <experimental dG reference units>  (19) 
kcal/mol

>  <experimental dG reference field>  (19) 
r_exp_dg

>  <kJ/mol experimental dG>  (19) 
-26.9489348

>  <kcal/mol experimental dG>  (19) 
-6.44095

$$$$
17l
     RDKit          3D

 52 55  0  0  1  0  0  0  0  0999 V2000
   10.8011   -9.2877    0.2796 C   0  0  0  0  0  0  0  0  0  0  0  0
   11.9594   -9.0271   -0.4571 C   0  0  0  0  0  0  0  0  0  0  0  0
   10.8214   -9.1701    1.6720 C   0  0  0  0  0  0  0  0  0  0  0  0
   11.9975   -8.7929    2.3259 C   0  0  0  0  0  0  0  0  0  0  0  0
   13.1528   -8.5335    1.5842 C   0  0  0  0  0  0  0  0  0  0  0  0
   13.1326   -8.6508    0.1952 C   0  0  0  0  0  0  0  0  0  0  0  0
   14.3746   -8.3717   -0.5984 C   0  0  0  0  0  0  0  0  0  0  0  0
   14.3469   -8.0117   -1.8695 N   0  0  0  0  0  0  0  0  0  0  0  0
   15.6495   -7.8341   -2.2967 N   0  0  0  0  0  0  0  0  0  0  0  0
   15.6852   -8.4424   -0.1508 C   0  0  0  0  0  0  0  0  0  0  0  0
   16.4360   -8.0988   -1.2459 N   0  0  0  0  0  0  0  0  0  0  0  0
   17.8723   -7.9717   -1.4752 C   0  0  2  0  0  0  0  0  0  0  0  0
   18.6128   -9.2294   -0.9901 C   0  0  1  0  0  0  0  0  0  0  0  0
   18.2247  -10.3300   -1.7266 O   0  0  0  0  0  0  0  0  0  0  0  0
   18.4278   -6.7273   -0.7622 C   0  0  1  0  0  0  0  0  0  0  0  0
   18.0594   -6.7515    0.5675 O   0  0  0  0  0  0  0  0  0  0  0  0
   19.9644   -6.6641   -0.8562 C   0  0  1  0  0  0  0  0  0  0  0  0
   20.4848   -5.5093   -0.0527 C   0  0  0  0  0  0  0  0  0  0  0  0
   21.8221   -5.3181   -0.3349 O   0  0  0  0  0  0  0  0  0  0  0  0
   20.5330   -7.8771   -0.3539 O   0  0  0  0  0  0  0  0  0  0  0  0
   20.1408   -9.0499   -1.0735 C   0  0  1  0  0  0  0  0  0  0  0  0
   20.9643  -10.4642   -0.3736 S   0  0  0  0  0  0  0  0  0  0  0  0
   22.6578  -10.0777   -0.7625 C   0  0  0  0  0  0  0  0  0  0  0  0
   23.4416   -9.3885    0.1552 C   0  0  0  0  0  0  0  0  0  0  0  0
   24.7639   -9.0867   -0.1485 C   0  0  0  0  0  0  0  0  0  0  0  0
   25.3023   -9.4741   -1.3698 C   0  0  0  0  0  0  0  0  0  0  0  0
   24.5184  -10.1634   -2.2875 C   0  0  0  0  0  0  0  0  0  0  0  0
   23.1962  -10.4652   -1.9838 C   0  0  0  0  0  0  0  0  0  0  0  0
   16.1370   -8.6931    0.7999 H   0  0  0  0  0  0  0  0  0  0  0  0
   18.0004   -7.8640   -2.5546 H   0  0  0  0  0  0  0  0  0  0  0  0
   18.3359   -9.4423    0.0438 H   0  0  0  0  0  0  0  0  0  0  0  0
   18.4193  -10.2732   -2.7059 H   0  0  0  0  0  0  0  0  0  0  0  0
   17.9896   -5.8210   -1.1827 H   0  0  0  0  0  0  0  0  0  0  0  0
   17.4974   -5.9795    0.8644 H   0  0  0  0  0  0  0  0  0  0  0  0
   20.2855   -6.4938   -1.8862 H   0  0  0  0  0  0  0  0  0  0  0  0
   19.9271   -4.6083   -0.3081 H   0  0  0  0  0  0  0  0  0  0  0  0
   20.3645   -5.7222    1.0095 H   0  0  0  0  0  0  0  0  0  0  0  0
   22.2085   -5.9552   -1.0018 H   0  0  0  0  0  0  0  0  0  0  0  0
   20.4696   -8.9836   -2.1130 H   0  0  0  0  0  0  0  0  0  0  0  0
   23.0225   -9.0868    1.1060 H   0  0  0  0  0  0  0  0  0  0  0  0
   25.3742   -8.5500    0.5660 H   0  0  0  0  0  0  0  0  0  0  0  0
   24.9376  -10.4650   -3.2384 H   0  0  0  0  0  0  0  0  0  0  0  0
   22.5859  -11.0018   -2.6983 H   0  0  0  0  0  0  0  0  0  0  0  0
   26.7293   -9.1484   -1.6975 C   0  0  0  0  0  0  0  0  0  0  0  0
   26.9702   -9.5291   -2.6901 H   0  0  0  0  0  0  0  0  0  0  0  0
   27.3861   -9.6119   -0.9613 H   0  0  0  0  0  0  0  0  0  0  0  0
   26.8687   -8.0675   -1.6793 H   0  0  0  0  0  0  0  0  0  0  0  0
    9.2566   -9.5218    2.6719 Br  0  0  0  0  0  0  0  0  0  0  0  0
    9.8930   -9.5792   -0.2272 H   0  0  0  0  0  0  0  0  0  0  0  0
   11.9466   -9.1172   -1.5332 H   0  0  0  0  0  0  0  0  0  0  0  0
   12.0118   -8.7024    3.4020 H   0  0  0  0  0  0  0  0  0  0  0  0
   14.0631   -8.2418    2.0869 H   0  0  0  0  0  0  0  0  0  0  0  0
  1  2  2  0
  1  3  1  0
  1 49  1  0
  2  6  1  0
  2 50  1  0
  3  4  2  0
  3 48  1  0
  4  5  1  0
  4 51  1  0
  5  6  2  0
  5 52  1  0
  6  7  1  0
  7  8  1  0
  7 10  2  0
  8  9  2  0
  9 11  1  0
 10 11  1  0
 10 29  1  0
 11 12  1  0
 12 13  1  0
 12 15  1  0
 12 30  1  6
 13 14  1  0
 13 21  1  0
 13 31  1  1
 14 32  1  0
 15 16  1  0
 15 17  1  0
 15 33  1  6
 16 34  1  0
 17 18  1  0
 17 20  1  0
 17 35  1  6
 18 19  1  0
 18 36  1  0
 18 37  1  0
 19 38  1  0
 20 21  1  0
 21 22  1  0
 21 39  1  6
 22 23  1  0
 23 24  2  0
 23 28  1  0
 24 25  1  0
 24 40  1  0
 25 26  2  0
 25 41  1  0
 26 27  1  0
 26 44  1  0
 27 28  2  0
 27 42  1  0
 28 43  1  0
 44 45  1  0
 44 46  1  0
 44 47  1  0
M  END
>  <i_m_Source_File_Index>  (20) 
20

>  <b_m_subgroup_collapsed>  (20) 
0

>  <r_exp_dg>  (20) 
-5.94341

>  <s_m_Source_File>  (20) 
galectin3_extra_ligands.sdf

>  <s_m_Source_Path>  (20) 
/efs/home/chaya/odyssey/projects/openfe-benchmark/Galectin

>  <s_m_entry_id>  (20) 
26

>  <s_m_entry_name>  (20) 
galectin3_extra_ligands.20

>  <s_m_subgroup_title>  (20) 
galectin3_extra_ligands

>  <s_m_subgroupid>  (20) 
galectin3_extra_ligands

>  <experimental dG reference units>  (20) 
kcal/mol

>  <experimental dG reference field>  (20) 
r_exp_dg

>  <kJ/mol experimental dG>  (20) 
-24.86722744

>  <kcal/mol experimental dG>  (20) 
-5.94341

$$$$
17c
     RDKit          3D

 52 55  0  0  1  0  0  0  0  0999 V2000
   10.8011   -9.2877    0.2796 C   0  0  0  0  0  0  0  0  0  0  0  0
   11.9594   -9.0271   -0.4571 C   0  0  0  0  0  0  0  0  0  0  0  0
   10.8214   -9.1701    1.6720 C   0  0  0  0  0  0  0  0  0  0  0  0
   11.9975   -8.7929    2.3259 C   0  0  0  0  0  0  0  0  0  0  0  0
   13.1528   -8.5335    1.5842 C   0  0  0  0  0  0  0  0  0  0  0  0
   13.1326   -8.6508    0.1952 C   0  0  0  0  0  0  0  0  0  0  0  0
   14.3746   -8.3717   -0.5984 C   0  0  0  0  0  0  0  0  0  0  0  0
   14.3469   -8.0117   -1.8695 N   0  0  0  0  0  0  0  0  0  0  0  0
   15.6495   -7.8341   -2.2967 N   0  0  0  0  0  0  0  0  0  0  0  0
   15.6852   -8.4424   -0.1508 C   0  0  0  0  0  0  0  0  0  0  0  0
   16.4360   -8.0988   -1.2459 N   0  0  0  0  0  0  0  0  0  0  0  0
   17.8723   -7.9717   -1.4752 C   0  0  2  0  0  0  0  0  0  0  0  0
   18.6128   -9.2294   -0.9901 C   0  0  1  0  0  0  0  0  0  0  0  0
   18.2247  -10.3300   -1.7266 O   0  0  0  0  0  0  0  0  0  0  0  0
   18.4278   -6.7273   -0.7622 C   0  0  1  0  0  0  0  0  0  0  0  0
   18.0594   -6.7515    0.5675 O   0  0  0  0  0  0  0  0  0  0  0  0
   19.9644   -6.6641   -0.8562 C   0  0  1  0  0  0  0  0  0  0  0  0
   20.4848   -5.5093   -0.0527 C   0  0  0  0  0  0  0  0  0  0  0  0
   21.8221   -5.3181   -0.3349 O   0  0  0  0  0  0  0  0  0  0  0  0
   20.5330   -7.8771   -0.3539 O   0  0  0  0  0  0  0  0  0  0  0  0
   20.1408   -9.0499   -1.0735 C   0  0  1  0  0  0  0  0  0  0  0  0
   20.9643  -10.4642   -0.3736 S   0  0  0  0  0  0  0  0  0  0  0  0
   22.6578  -10.0777   -0.7625 C   0  0  0  0  0  0  0  0  0  0  0  0
   23.4416   -9.3885    0.1552 C   0  0  0  0  0  0  0  0  0  0  0  0
   24.7639   -9.0867   -0.1485 C   0  0  0  0  0  0  0  0  0  0  0  0
   25.3023   -9.4741   -1.3698 C   0  0  0  0  0  0  0  0  0  0  0  0
   24.5184  -10.1634   -2.2875 C   0  0  0  0  0  0  0  0  0  0  0  0
   23.1962  -10.4652   -1.9838 C   0  0  0  0  0  0  0  0  0  0  0  0
   16.1370   -8.6931    0.7999 H   0  0  0  0  0  0  0  0  0  0  0  0
   18.0004   -7.8640   -2.5546 H   0  0  0  0  0  0  0  0  0  0  0  0
   18.3359   -9.4423    0.0438 H   0  0  0  0  0  0  0  0  0  0  0  0
   18.4193  -10.2732   -2.7059 H   0  0  0  0  0  0  0  0  0  0  0  0
   17.9896   -5.8210   -1.1827 H   0  0  0  0  0  0  0  0  0  0  0  0
   17.4974   -5.9795    0.8644 H   0  0  0  0  0  0  0  0  0  0  0  0
   20.2855   -6.4938   -1.8862 H   0  0  0  0  0  0  0  0  0  0  0  0
   19.9271   -4.6083   -0.3081 H   0  0  0  0  0  0  0  0  0  0  0  0
   20.3645   -5.7222    1.0095 H   0  0  0  0  0  0  0  0  0  0  0  0
   22.2085   -5.9552   -1.0018 H   0  0  0  0  0  0  0  0  0  0  0  0
   20.4696   -8.9836   -2.1130 H   0  0  0  0  0  0  0  0  0  0  0  0
   23.0225   -9.0868    1.1060 H   0  0  0  0  0  0  0  0  0  0  0  0
   25.3742   -8.5500    0.5660 H   0  0  0  0  0  0  0  0  0  0  0  0
   24.9376  -10.4650   -3.2384 H   0  0  0  0  0  0  0  0  0  0  0  0
   22.5859  -11.0018   -2.6983 H   0  0  0  0  0  0  0  0  0  0  0  0
   12.0181   -8.6804    3.6540 F   0  0  0  0  0  0  0  0  0  0  0  0
   26.7293   -9.1484   -1.6975 C   0  0  0  0  0  0  0  0  0  0  0  0
   26.9702   -9.5291   -2.6901 H   0  0  0  0  0  0  0  0  0  0  0  0
   27.3861   -9.6119   -0.9613 H   0  0  0  0  0  0  0  0  0  0  0  0
   26.8687   -8.0675   -1.6793 H   0  0  0  0  0  0  0  0  0  0  0  0
    9.8930   -9.5792   -0.2272 H   0  0  0  0  0  0  0  0  0  0  0  0
   11.9466   -9.1172   -1.5332 H   0  0  0  0  0  0  0  0  0  0  0  0
    9.9276   -9.3709    2.2440 H   0  0  0  0  0  0  0  0  0  0  0  0
   14.0631   -8.2418    2.0869 H   0  0  0  0  0  0  0  0  0  0  0  0
  1  2  2  0
  1  3  1  0
  1 49  1  0
  2  6  1  0
  2 50  1  0
  3  4  2  0
  3 51  1  0
  4  5  1  0
  4 44  1  0
  5  6  2  0
  5 52  1  0
  6  7  1  0
  7  8  1  0
  7 10  2  0
  8  9  2  0
  9 11  1  0
 10 11  1  0
 10 29  1  0
 11 12  1  0
 12 13  1  0
 12 15  1  0
 12 30  1  6
 13 14  1  0
 13 21  1  0
 13 31  1  1
 14 32  1  0
 15 16  1  0
 15 17  1  0
 15 33  1  6
 16 34  1  0
 17 18  1  0
 17 20  1  0
 17 35  1  6
 18 19  1  0
 18 36  1  0
 18 37  1  0
 19 38  1  0
 20 21  1  0
 21 22  1  0
 21 39  1  6
 22 23  1  0
 23 24  2  0
 23 28  1  0
 24 25  1  0
 24 40  1  0
 25 26  2  0
 25 41  1  0
 26 27  1  0
 26 45  1  0
 27 28  2  0
 27 42  1  0
 28 43  1  0
 45 46  1  0
 45 47  1  0
 45 48  1  0
M  END
>  <i_m_Source_File_Index>  (21) 
21

>  <b_m_subgroup_collapsed>  (21) 
0

>  <r_exp_dg>  (21) 
-6.35409

>  <s_m_Source_File>  (21) 
galectin3_extra_ligands.sdf

>  <s_m_Source_Path>  (21) 
/efs/home/chaya/odyssey/projects/openfe-benchmark/Galectin

>  <s_m_entry_id>  (21) 
27

>  <s_m_entry_name>  (21) 
galectin3_extra_ligands.21

>  <s_m_subgroup_title>  (21) 
galectin3_extra_ligands

>  <s_m_subgroupid>  (21) 
galectin3_extra_ligands

>  <experimental dG reference units>  (21) 
kcal/mol

>  <experimental dG reference field>  (21) 
r_exp_dg

>  <kJ/mol experimental dG>  (21) 
-26.58551256

>  <kcal/mol experimental dG>  (21) 
-6.35409

$$$$
17k
     RDKit          3D

 52 55  0  0  1  0  0  0  0  0999 V2000
   10.8011   -9.2877    0.2796 C   0  0  0  0  0  0  0  0  0  0  0  0
   11.9594   -9.0271   -0.4571 C   0  0  0  0  0  0  0  0  0  0  0  0
   10.8214   -9.1701    1.6720 C   0  0  0  0  0  0  0  0  0  0  0  0
   11.9975   -8.7929    2.3259 C   0  0  0  0  0  0  0  0  0  0  0  0
   13.1528   -8.5335    1.5842 C   0  0  0  0  0  0  0  0  0  0  0  0
   13.1326   -8.6508    0.1952 C   0  0  0  0  0  0  0  0  0  0  0  0
   14.3746   -8.3717   -0.5984 C   0  0  0  0  0  0  0  0  0  0  0  0
   14.3469   -8.0117   -1.8695 N   0  0  0  0  0  0  0  0  0  0  0  0
   15.6495   -7.8341   -2.2967 N   0  0  0  0  0  0  0  0  0  0  0  0
   15.6852   -8.4424   -0.1508 C   0  0  0  0  0  0  0  0  0  0  0  0
   16.4360   -8.0988   -1.2459 N   0  0  0  0  0  0  0  0  0  0  0  0
   17.8723   -7.9717   -1.4752 C   0  0  2  0  0  0  0  0  0  0  0  0
   18.6128   -9.2294   -0.9901 C   0  0  1  0  0  0  0  0  0  0  0  0
   18.2247  -10.3300   -1.7266 O   0  0  0  0  0  0  0  0  0  0  0  0
   18.4278   -6.7273   -0.7622 C   0  0  1  0  0  0  0  0  0  0  0  0
   18.0594   -6.7515    0.5675 O   0  0  0  0  0  0  0  0  0  0  0  0
   19.9644   -6.6641   -0.8562 C   0  0  1  0  0  0  0  0  0  0  0  0
   20.4848   -5.5093   -0.0527 C   0  0  0  0  0  0  0  0  0  0  0  0
   21.8221   -5.3181   -0.3349 O   0  0  0  0  0  0  0  0  0  0  0  0
   20.5330   -7.8771   -0.3539 O   0  0  0  0  0  0  0  0  0  0  0  0
   20.1408   -9.0499   -1.0735 C   0  0  1  0  0  0  0  0  0  0  0  0
   20.9643  -10.4642   -0.3736 S   0  0  0  0  0  0  0  0  0  0  0  0
   22.6578  -10.0777   -0.7625 C   0  0  0  0  0  0  0  0  0  0  0  0
   23.4416   -9.3885    0.1552 C   0  0  0  0  0  0  0  0  0  0  0  0
   24.7639   -9.0867   -0.1485 C   0  0  0  0  0  0  0  0  0  0  0  0
   25.3023   -9.4741   -1.3698 C   0  0  0  0  0  0  0  0  0  0  0  0
   24.5184  -10.1634   -2.2875 C   0  0  0  0  0  0  0  0  0  0  0  0
   23.1962  -10.4652   -1.9838 C   0  0  0  0  0  0  0  0  0  0  0  0
   16.1370   -8.6931    0.7999 H   0  0  0  0  0  0  0  0  0  0  0  0
   18.0004   -7.8640   -2.5546 H   0  0  0  0  0  0  0  0  0  0  0  0
   18.3359   -9.4423    0.0438 H   0  0  0  0  0  0  0  0  0  0  0  0
   18.4193  -10.2732   -2.7059 H   0  0  0  0  0  0  0  0  0  0  0  0
   17.9896   -5.8210   -1.1827 H   0  0  0  0  0  0  0  0  0  0  0  0
   17.4974   -5.9795    0.8644 H   0  0  0  0  0  0  0  0  0  0  0  0
   20.2855   -6.4938   -1.8862 H   0  0  0  0  0  0  0  0  0  0  0  0
   19.9271   -4.6083   -0.3081 H   0  0  0  0  0  0  0  0  0  0  0  0
   20.3645   -5.7222    1.0095 H   0  0  0  0  0  0  0  0  0  0  0  0
   22.2085   -5.9552   -1.0018 H   0  0  0  0  0  0  0  0  0  0  0  0
   20.4696   -8.9836   -2.1130 H   0  0  0  0  0  0  0  0  0  0  0  0
   23.0225   -9.0868    1.1060 H   0  0  0  0  0  0  0  0  0  0  0  0
   25.3742   -8.5500    0.5660 H   0  0  0  0  0  0  0  0  0  0  0  0
   24.9376  -10.4650   -3.2384 H   0  0  0  0  0  0  0  0  0  0  0  0
   22.5859  -11.0018   -2.6983 H   0  0  0  0  0  0  0  0  0  0  0  0
   12.0242   -8.6469    4.0495 Cl  0  0  0  0  0  0  0  0  0  0  0  0
   26.7293   -9.1484   -1.6975 C   0  0  0  0  0  0  0  0  0  0  0  0
   26.9702   -9.5291   -2.6901 H   0  0  0  0  0  0  0  0  0  0  0  0
   27.3861   -9.6119   -0.9613 H   0  0  0  0  0  0  0  0  0  0  0  0
   26.8687   -8.0675   -1.6793 H   0  0  0  0  0  0  0  0  0  0  0  0
    9.3890   -9.4920    2.5872 Cl  0  0  0  0  0  0  0  0  0  0  0  0
    9.8930   -9.5792   -0.2272 H   0  0  0  0  0  0  0  0  0  0  0  0
   11.9466   -9.1172   -1.5332 H   0  0  0  0  0  0  0  0  0  0  0  0
   14.0631   -8.2418    2.0869 H   0  0  0  0  0  0  0  0  0  0  0  0
  1  2  2  0
  1  3  1  0
  1 50  1  0
  2  6  1  0
  2 51  1  0
  3  4  2  0
  3 49  1  0
  4  5  1  0
  4 44  1  0
  5  6  2  0
  5 52  1  0
  6  7  1  0
  7  8  1  0
  7 10  2  0
  8  9  2  0
  9 11  1  0
 10 11  1  0
 10 29  1  0
 11 12  1  0
 12 13  1  0
 12 15  1  0
 12 30  1  6
 13 14  1  0
 13 21  1  0
 13 31  1  1
 14 32  1  0
 15 16  1  0
 15 17  1  0
 15 33  1  6
 16 34  1  0
 17 18  1  0
 17 20  1  0
 17 35  1  6
 18 19  1  0
 18 36  1  0
 18 37  1  0
 19 38  1  0
 20 21  1  0
 21 22  1  0
 21 39  1  6
 22 23  1  0
 23 24  2  0
 23 28  1  0
 24 25  1  0
 24 40  1  0
 25 26  2  0
 25 41  1  0
 26 27  1  0
 26 45  1  0
 27 28  2  0
 27 42  1  0
 28 43  1  0
 45 46  1  0
 45 47  1  0
 45 48  1  0
M  END
>  <i_m_Source_File_Index>  (22) 
22

>  <b_m_subgroup_collapsed>  (22) 
0

>  <r_exp_dg>  (22) 
-6.62188

>  <s_m_Source_File>  (22) 
galectin3_extra_ligands.sdf

>  <s_m_Source_Path>  (22) 
/efs/home/chaya/odyssey/projects/openfe-benchmark/Galectin

>  <s_m_entry_id>  (22) 
28

>  <s_m_entry_name>  (22) 
galectin3_extra_ligands.22

>  <s_m_subgroup_title>  (22) 
galectin3_extra_ligands

>  <s_m_subgroupid>  (22) 
galectin3_extra_ligands

>  <experimental dG reference units>  (22) 
kcal/mol

>  <experimental dG reference field>  (22) 
r_exp_dg

>  <kJ/mol experimental dG>  (22) 
-27.70594592

>  <kcal/mol experimental dG>  (22) 
-6.62188

$$$$
17b
     RDKit          3D

 52 55  0  0  1  0  0  0  0  0999 V2000
   10.8011   -9.2877    0.2796 C   0  0  0  0  0  0  0  0  0  0  0  0
   11.9594   -9.0271   -0.4571 C   0  0  0  0  0  0  0  0  0  0  0  0
   10.8214   -9.1701    1.6720 C   0  0  0  0  0  0  0  0  0  0  0  0
   11.9975   -8.7929    2.3259 C   0  0  0  0  0  0  0  0  0  0  0  0
   13.1528   -8.5335    1.5842 C   0  0  0  0  0  0  0  0  0  0  0  0
   13.1326   -8.6508    0.1952 C   0  0  0  0  0  0  0  0  0  0  0  0
   14.3746   -8.3717   -0.5984 C   0  0  0  0  0  0  0  0  0  0  0  0
   14.3469   -8.0117   -1.8695 N   0  0  0  0  0  0  0  0  0  0  0  0
   15.6495   -7.8341   -2.2967 N   0  0  0  0  0  0  0  0  0  0  0  0
   15.6852   -8.4424   -0.1508 C   0  0  0  0  0  0  0  0  0  0  0  0
   16.4360   -8.0988   -1.2459 N   0  0  0  0  0  0  0  0  0  0  0  0
   17.8723   -7.9717   -1.4752 C   0  0  2  0  0  0  0  0  0  0  0  0
   18.6128   -9.2294   -0.9901 C   0  0  1  0  0  0  0  0  0  0  0  0
   18.2247  -10.3300   -1.7266 O   0  0  0  0  0  0  0  0  0  0  0  0
   18.4278   -6.7273   -0.7622 C   0  0  1  0  0  0  0  0  0  0  0  0
   18.0594   -6.7515    0.5675 O   0  0  0  0  0  0  0  0  0  0  0  0
   19.9644   -6.6641   -0.8562 C   0  0  1  0  0  0  0  0  0  0  0  0
   20.4848   -5.5093   -0.0527 C   0  0  0  0  0  0  0  0  0  0  0  0
   21.8221   -5.3181   -0.3349 O   0  0  0  0  0  0  0  0  0  0  0  0
   20.5330   -7.8771   -0.3539 O   0  0  0  0  0  0  0  0  0  0  0  0
   20.1408   -9.0499   -1.0735 C   0  0  1  0  0  0  0  0  0  0  0  0
   20.9643  -10.4642   -0.3736 S   0  0  0  0  0  0  0  0  0  0  0  0
   22.6578  -10.0777   -0.7625 C   0  0  0  0  0  0  0  0  0  0  0  0
   23.4416   -9.3885    0.1552 C   0  0  0  0  0  0  0  0  0  0  0  0
   24.7639   -9.0867   -0.1485 C   0  0  0  0  0  0  0  0  0  0  0  0
   25.3023   -9.4741   -1.3698 C   0  0  0  0  0  0  0  0  0  0  0  0
   24.5184  -10.1634   -2.2875 C   0  0  0  0  0  0  0  0  0  0  0  0
   23.1962  -10.4652   -1.9838 C   0  0  0  0  0  0  0  0  0  0  0  0
   16.1370   -8.6931    0.7999 H   0  0  0  0  0  0  0  0  0  0  0  0
   18.0004   -7.8640   -2.5546 H   0  0  0  0  0  0  0  0  0  0  0  0
   18.3359   -9.4423    0.0438 H   0  0  0  0  0  0  0  0  0  0  0  0
   18.4193  -10.2732   -2.7059 H   0  0  0  0  0  0  0  0  0  0  0  0
   17.9896   -5.8210   -1.1827 H   0  0  0  0  0  0  0  0  0  0  0  0
   17.4974   -5.9795    0.8644 H   0  0  0  0  0  0  0  0  0  0  0  0
   20.2855   -6.4938   -1.8862 H   0  0  0  0  0  0  0  0  0  0  0  0
   19.9271   -4.6083   -0.3081 H   0  0  0  0  0  0  0  0  0  0  0  0
   20.3645   -5.7222    1.0095 H   0  0  0  0  0  0  0  0  0  0  0  0
   22.2085   -5.9552   -1.0018 H   0  0  0  0  0  0  0  0  0  0  0  0
   20.4696   -8.9836   -2.1130 H   0  0  0  0  0  0  0  0  0  0  0  0
   23.0225   -9.0868    1.1060 H   0  0  0  0  0  0  0  0  0  0  0  0
   25.3742   -8.5500    0.5660 H   0  0  0  0  0  0  0  0  0  0  0  0
   24.9376  -10.4650   -3.2384 H   0  0  0  0  0  0  0  0  0  0  0  0
   22.5859  -11.0018   -2.6983 H   0  0  0  0  0  0  0  0  0  0  0  0
   14.2796   -8.1731    2.1985 F   0  0  0  0  0  0  0  0  0  0  0  0
   26.7293   -9.1484   -1.6975 C   0  0  0  0  0  0  0  0  0  0  0  0
   26.9702   -9.5291   -2.6901 H   0  0  0  0  0  0  0  0  0  0  0  0
   27.3861   -9.6119   -0.9613 H   0  0  0  0  0  0  0  0  0  0  0  0
   26.8687   -8.0675   -1.6793 H   0  0  0  0  0  0  0  0  0  0  0  0
    9.8930   -9.5792   -0.2272 H   0  0  0  0  0  0  0  0  0  0  0  0
   11.9466   -9.1172   -1.5332 H   0  0  0  0  0  0  0  0  0  0  0  0
    9.9276   -9.3709    2.2440 H   0  0  0  0  0  0  0  0  0  0  0  0
   12.0118   -8.7024    3.4020 H   0  0  0  0  0  0  0  0  0  0  0  0
  1  2  2  0
  1  3  1  0
  1 49  1  0
  2  6  1  0
  2 50  1  0
  3  4  2  0
  3 51  1  0
  4  5  1  0
  4 52  1  0
  5  6  2  0
  5 44  1  0
  6  7  1  0
  7  8  1  0
  7 10  2  0
  8  9  2  0
  9 11  1  0
 10 11  1  0
 10 29  1  0
 11 12  1  0
 12 13  1  0
 12 15  1  0
 12 30  1  6
 13 14  1  0
 13 21  1  0
 13 31  1  1
 14 32  1  0
 15 16  1  0
 15 17  1  0
 15 33  1  6
 16 34  1  0
 17 18  1  0
 17 20  1  0
 17 35  1  6
 18 19  1  0
 18 36  1  0
 18 37  1  0
 19 38  1  0
 20 21  1  0
 21 22  1  0
 21 39  1  6
 22 23  1  0
 23 24  2  0
 23 28  1  0
 24 25  1  0
 24 40  1  0
 25 26  2  0
 25 41  1  0
 26 27  1  0
 26 45  1  0
 27 28  2  0
 27 42  1  0
 28 43  1  0
 45 46  1  0
 45 47  1  0
 45 48  1  0
M  END
>  <i_m_Source_File_Index>  (23) 
23

>  <b_m_subgroup_collapsed>  (23) 
0

>  <r_exp_dg>  (23) 
-5.50639

>  <s_m_Source_File>  (23) 
galectin3_extra_ligands.sdf

>  <s_m_Source_Path>  (23) 
/efs/home/chaya/odyssey/projects/openfe-benchmark/Galectin

>  <s_m_entry_id>  (23) 
29

>  <s_m_entry_name>  (23) 
galectin3_extra_ligands.23

>  <s_m_subgroup_title>  (23) 
galectin3_extra_ligands

>  <s_m_subgroupid>  (23) 
galectin3_extra_ligands

>  <experimental dG reference units>  (23) 
kcal/mol

>  <experimental dG reference field>  (23) 
r_exp_dg

>  <kJ/mol experimental dG>  (23) 
-23.038735759999998

>  <kcal/mol experimental dG>  (23) 
-5.50639

$$$$
17h flip
     RDKit          3D

 55 58  0  0  1  0  0  0  0  0999 V2000
   11.9975   -8.7929    2.3259 C   0  0  0  0  0  0  0  0  0  0  0  0
   13.1528   -8.5335    1.5842 C   0  0  0  0  0  0  0  0  0  0  0  0
   10.8214   -9.1701    1.6720 C   0  0  0  0  0  0  0  0  0  0  0  0
   10.8011   -9.2877    0.2796 C   0  0  0  0  0  0  0  0  0  0  0  0
   11.9594   -9.0271   -0.4571 C   0  0  0  0  0  0  0  0  0  0  0  0
   13.1326   -8.6508    0.1952 C   0  0  0  0  0  0  0  0  0  0  0  0
   14.3746   -8.3717   -0.5984 C   0  0  0  0  0  0  0  0  0  0  0  0
   14.3469   -8.0117   -1.8695 N   0  0  0  0  0  0  0  0  0  0  0  0
   15.6495   -7.8341   -2.2967 N   0  0  0  0  0  0  0  0  0  0  0  0
   15.6852   -8.4424   -0.1508 C   0  0  0  0  0  0  0  0  0  0  0  0
   16.4360   -8.0988   -1.2459 N   0  0  0  0  0  0  0  0  0  0  0  0
   17.8723   -7.9717   -1.4752 C   0  0  2  0  0  0  0  0  0  0  0  0
   18.6128   -9.2294   -0.9901 C   0  0  1  0  0  0  0  0  0  0  0  0
   18.2247  -10.3300   -1.7266 O   0  0  0  0  0  0  0  0  0  0  0  0
   18.4278   -6.7273   -0.7622 C   0  0  1  0  0  0  0  0  0  0  0  0
   18.0594   -6.7515    0.5675 O   0  0  0  0  0  0  0  0  0  0  0  0
   19.9644   -6.6641   -0.8562 C   0  0  1  0  0  0  0  0  0  0  0  0
   20.4848   -5.5093   -0.0527 C   0  0  0  0  0  0  0  0  0  0  0  0
   21.8221   -5.3181   -0.3349 O   0  0  0  0  0  0  0  0  0  0  0  0
   20.5330   -7.8771   -0.3539 O   0  0  0  0  0  0  0  0  0  0  0  0
   20.1408   -9.0499   -1.0735 C   0  0  1  0  0  0  0  0  0  0  0  0
   20.9643  -10.4642   -0.3736 S   0  0  0  0  0  0  0  0  0  0  0  0
   22.6578  -10.0777   -0.7625 C   0  0  0  0  0  0  0  0  0  0  0  0
   23.4416   -9.3885    0.1552 C   0  0  0  0  0  0  0  0  0  0  0  0
   24.7639   -9.0867   -0.1485 C   0  0  0  0  0  0  0  0  0  0  0  0
   25.3023   -9.4741   -1.3698 C   0  0  0  0  0  0  0  0  0  0  0  0
   24.5184  -10.1634   -2.2875 C   0  0  0  0  0  0  0  0  0  0  0  0
   23.1962  -10.4652   -1.9838 C   0  0  0  0  0  0  0  0  0  0  0  0
   16.1370   -8.6931    0.7999 H   0  0  0  0  0  0  0  0  0  0  0  0
   18.0004   -7.8640   -2.5546 H   0  0  0  0  0  0  0  0  0  0  0  0
   18.3359   -9.4423    0.0438 H   0  0  0  0  0  0  0  0  0  0  0  0
   18.4193  -10.2732   -2.7059 H   0  0  0  0  0  0  0  0  0  0  0  0
   17.9896   -5.8210   -1.1827 H   0  0  0  0  0  0  0  0  0  0  0  0
   17.4974   -5.9795    0.8644 H   0  0  0  0  0  0  0  0  0  0  0  0
   20.2855   -6.4938   -1.8862 H   0  0  0  0  0  0  0  0  0  0  0  0
   19.9271   -4.6083   -0.3081 H   0  0  0  0  0  0  0  0  0  0  0  0
   20.3645   -5.7222    1.0095 H   0  0  0  0  0  0  0  0  0  0  0  0
   22.2085   -5.9552   -1.0018 H   0  0  0  0  0  0  0  0  0  0  0  0
   20.4696   -8.9836   -2.1130 H   0  0  0  0  0  0  0  0  0  0  0  0
   23.0225   -9.0868    1.1060 H   0  0  0  0  0  0  0  0  0  0  0  0
   25.3742   -8.5500    0.5660 H   0  0  0  0  0  0  0  0  0  0  0  0
   24.9376  -10.4650   -3.2384 H   0  0  0  0  0  0  0  0  0  0  0  0
   22.5859  -11.0018   -2.6983 H   0  0  0  0  0  0  0  0  0  0  0  0
    9.5058   -9.7033   -0.4423 C   0  0  0  0  0  0  0  0  0  0  0  0
   26.7293   -9.1484   -1.6975 C   0  0  0  0  0  0  0  0  0  0  0  0
   26.9702   -9.5291   -2.6901 H   0  0  0  0  0  0  0  0  0  0  0  0
   27.3861   -9.6119   -0.9613 H   0  0  0  0  0  0  0  0  0  0  0  0
   26.8687   -8.0675   -1.6793 H   0  0  0  0  0  0  0  0  0  0  0  0
   14.0631   -8.2418    2.0869 H   0  0  0  0  0  0  0  0  0  0  0  0
    9.7173   -9.4183    2.3765 F   0  0  0  0  0  0  0  0  0  0  0  0
   11.9466   -9.1172   -1.5332 H   0  0  0  0  0  0  0  0  0  0  0  0
   12.0147   -8.7016    3.4019 H   0  0  0  0  0  0  0  0  0  0  0  0
    9.6841   -9.7405   -1.5170 H   0  0  0  0  0  0  0  0  0  0  0  0
    9.1938  -10.6872   -0.0920 H   0  0  0  0  0  0  0  0  0  0  0  0
    8.7216   -8.9769   -0.2295 H   0  0  0  0  0  0  0  0  0  0  0  0
  1  2  2  0
  1  3  1  0
  1 52  1  0
  2  6  1  0
  2 49  1  0
  3  4  2  0
  3 50  1  0
  4  5  1  0
  4 44  1  0
  5  6  2  0
  5 51  1  0
  6  7  1  0
  7  8  1  0
  7 10  2  0
  8  9  2  0
  9 11  1  0
 10 11  1  0
 10 29  1  0
 11 12  1  0
 12 13  1  0
 12 15  1  0
 12 30  1  6
 13 14  1  0
 13 21  1  0
 13 31  1  1
 14 32  1  0
 15 16  1  0
 15 17  1  0
 15 33  1  6
 16 34  1  0
 17 18  1  0
 17 20  1  0
 17 35  1  6
 18 19  1  0
 18 36  1  0
 18 37  1  0
 19 38  1  0
 20 21  1  0
 21 22  1  0
 21 39  1  6
 22 23  1  0
 23 24  2  0
 23 28  1  0
 24 25  1  0
 24 40  1  0
 25 26  2  0
 25 41  1  0
 26 27  1  0
 26 45  1  0
 27 28  2  0
 27 42  1  0
 28 43  1  0
 44 53  1  0
 44 54  1  0
 44 55  1  0
 45 46  1  0
 45 47  1  0
 45 48  1  0
M  END
>  <i_m_Source_File_Index>  (24) 
24

>  <b_m_subgroup_collapsed>  (24) 
0

>  <r_exp_dg>  (24) 
-6.32775

>  <s_m_Source_File>  (24) 
galectin3_extra_ligands.sdf

>  <s_m_Source_Path>  (24) 
/efs/home/chaya/odyssey/projects/openfe-benchmark/Galectin

>  <s_m_entry_id>  (24) 
30

>  <s_m_entry_name>  (24) 
galectin3_extra_ligands.24

>  <s_m_subgroup_title>  (24) 
galectin3_extra_ligands

>  <s_m_subgroupid>  (24) 
galectin3_extra_ligands

>  <experimental dG reference units>  (24) 
kcal/mol

>  <experimental dG reference field>  (24) 
r_exp_dg

>  <kJ/mol experimental dG>  (24) 
-26.475306

>  <kcal/mol experimental dG>  (24) 
-6.32775

$$$$
17i
     RDKit          3D

 52 55  0  0  1  0  0  0  0  0999 V2000
   10.8011   -9.2877    0.2796 C   0  0  0  0  0  0  0  0  0  0  0  0
   11.9594   -9.0271   -0.4571 C   0  0  0  0  0  0  0  0  0  0  0  0
   10.8214   -9.1701    1.6720 C   0  0  0  0  0  0  0  0  0  0  0  0
   11.9975   -8.7929    2.3259 C   0  0  0  0  0  0  0  0  0  0  0  0
   13.1528   -8.5335    1.5842 C   0  0  0  0  0  0  0  0  0  0  0  0
   13.1326   -8.6508    0.1952 C   0  0  0  0  0  0  0  0  0  0  0  0
   14.3746   -8.3717   -0.5984 C   0  0  0  0  0  0  0  0  0  0  0  0
   14.3469   -8.0117   -1.8695 N   0  0  0  0  0  0  0  0  0  0  0  0
   15.6495   -7.8341   -2.2967 N   0  0  0  0  0  0  0  0  0  0  0  0
   15.6852   -8.4424   -0.1508 C   0  0  0  0  0  0  0  0  0  0  0  0
   16.4360   -8.0988   -1.2459 N   0  0  0  0  0  0  0  0  0  0  0  0
   17.8723   -7.9717   -1.4752 C   0  0  2  0  0  0  0  0  0  0  0  0
   18.6128   -9.2294   -0.9901 C   0  0  1  0  0  0  0  0  0  0  0  0
   18.2247  -10.3300   -1.7266 O   0  0  0  0  0  0  0  0  0  0  0  0
   18.4278   -6.7273   -0.7622 C   0  0  1  0  0  0  0  0  0  0  0  0
   18.0594   -6.7515    0.5675 O   0  0  0  0  0  0  0  0  0  0  0  0
   19.9644   -6.6641   -0.8562 C   0  0  1  0  0  0  0  0  0  0  0  0
   20.4848   -5.5093   -0.0527 C   0  0  0  0  0  0  0  0  0  0  0  0
   21.8221   -5.3181   -0.3349 O   0  0  0  0  0  0  0  0  0  0  0  0
   20.5330   -7.8771   -0.3539 O   0  0  0  0  0  0  0  0  0  0  0  0
   20.1408   -9.0499   -1.0735 C   0  0  1  0  0  0  0  0  0  0  0  0
   20.9643  -10.4642   -0.3736 S   0  0  0  0  0  0  0  0  0  0  0  0
   22.6578  -10.0777   -0.7625 C   0  0  0  0  0  0  0  0  0  0  0  0
   23.4416   -9.3885    0.1552 C   0  0  0  0  0  0  0  0  0  0  0  0
   24.7639   -9.0867   -0.1485 C   0  0  0  0  0  0  0  0  0  0  0  0
   25.3023   -9.4741   -1.3698 C   0  0  0  0  0  0  0  0  0  0  0  0
   24.5184  -10.1634   -2.2875 C   0  0  0  0  0  0  0  0  0  0  0  0
   23.1962  -10.4652   -1.9838 C   0  0  0  0  0  0  0  0  0  0  0  0
   16.1370   -8.6931    0.7999 H   0  0  0  0  0  0  0  0  0  0  0  0
   18.0004   -7.8640   -2.5546 H   0  0  0  0  0  0  0  0  0  0  0  0
   18.3359   -9.4423    0.0438 H   0  0  0  0  0  0  0  0  0  0  0  0
   18.4193  -10.2732   -2.7059 H   0  0  0  0  0  0  0  0  0  0  0  0
   17.9896   -5.8210   -1.1827 H   0  0  0  0  0  0  0  0  0  0  0  0
   17.4974   -5.9795    0.8644 H   0  0  0  0  0  0  0  0  0  0  0  0
   20.2855   -6.4938   -1.8862 H   0  0  0  0  0  0  0  0  0  0  0  0
   19.9271   -4.6083   -0.3081 H   0  0  0  0  0  0  0  0  0  0  0  0
   20.3645   -5.7222    1.0095 H   0  0  0  0  0  0  0  0  0  0  0  0
   22.2085   -5.9552   -1.0018 H   0  0  0  0  0  0  0  0  0  0  0  0
   20.4696   -8.9836   -2.1130 H   0  0  0  0  0  0  0  0  0  0  0  0
   23.0225   -9.0868    1.1060 H   0  0  0  0  0  0  0  0  0  0  0  0
   25.3742   -8.5500    0.5660 H   0  0  0  0  0  0  0  0  0  0  0  0
   24.9376  -10.4650   -3.2384 H   0  0  0  0  0  0  0  0  0  0  0  0
   22.5859  -11.0018   -2.6983 H   0  0  0  0  0  0  0  0  0  0  0  0
   12.0242   -8.6469    4.0495 Cl  0  0  0  0  0  0  0  0  0  0  0  0
   26.7293   -9.1484   -1.6975 C   0  0  0  0  0  0  0  0  0  0  0  0
   26.9702   -9.5291   -2.6901 H   0  0  0  0  0  0  0  0  0  0  0  0
   27.3861   -9.6119   -0.9613 H   0  0  0  0  0  0  0  0  0  0  0  0
   26.8687   -8.0675   -1.6793 H   0  0  0  0  0  0  0  0  0  0  0  0
    9.8930   -9.5792   -0.2272 H   0  0  0  0  0  0  0  0  0  0  0  0
   11.9466   -9.1172   -1.5332 H   0  0  0  0  0  0  0  0  0  0  0  0
    9.9276   -9.3709    2.2440 H   0  0  0  0  0  0  0  0  0  0  0  0
   14.0631   -8.2418    2.0869 H   0  0  0  0  0  0  0  0  0  0  0  0
  1  2  2  0
  1  3  1  0
  1 49  1  0
  2  6  1  0
  2 50  1  0
  3  4  2  0
  3 51  1  0
  4  5  1  0
  4 44  1  0
  5  6  2  0
  5 52  1  0
  6  7  1  0
  7  8  1  0
  7 10  2  0
  8  9  2  0
  9 11  1  0
 10 11  1  0
 10 29  1  0
 11 12  1  0
 12 13  1  0
 12 15  1  0
 12 30  1  6
 13 14  1  0
 13 21  1  0
 13 31  1  1
 14 32  1  0
 15 16  1  0
 15 17  1  0
 15 33  1  6
 16 34  1  0
 17 18  1  0
 17 20  1  0
 17 35  1  6
 18 19  1  0
 18 36  1  0
 18 37  1  0
 19 38  1  0
 20 21  1  0
 21 22  1  0
 21 39  1  6
 22 23  1  0
 23 24  2  0
 23 28  1  0
 24 25  1  0
 24 40  1  0
 25 26  2  0
 25 41  1  0
 26 27  1  0
 26 45  1  0
 27 28  2  0
 27 42  1  0
 28 43  1  0
 45 46  1  0
 45 47  1  0
 45 48  1  0
M  END
>  <i_m_Source_File_Index>  (25) 
25

>  <b_m_subgroup_collapsed>  (25) 
0

>  <r_exp_dg>  (25) 
-5.94341

>  <s_m_Source_File>  (25) 
galectin3_extra_ligands.sdf

>  <s_m_Source_Path>  (25) 
/efs/home/chaya/odyssey/projects/openfe-benchmark/Galectin

>  <s_m_entry_id>  (25) 
31

>  <s_m_entry_name>  (25) 
galectin3_extra_ligands.25

>  <s_m_subgroup_title>  (25) 
galectin3_extra_ligands

>  <s_m_subgroupid>  (25) 
galectin3_extra_ligands

>  <experimental dG reference units>  (25) 
kcal/mol

>  <experimental dG reference field>  (25) 
r_exp_dg

>  <kJ/mol experimental dG>  (25) 
-24.86722744

>  <kcal/mol experimental dG>  (25) 
-5.94341

$$$$
17d
     RDKit          3D

 52 55  0  0  1  0  0  0  0  0999 V2000
   10.8011   -9.2877    0.2796 C   0  0  0  0  0  0  0  0  0  0  0  0
   11.9594   -9.0271   -0.4571 C   0  0  0  0  0  0  0  0  0  0  0  0
   10.8214   -9.1701    1.6720 C   0  0  0  0  0  0  0  0  0  0  0  0
   11.9975   -8.7929    2.3259 C   0  0  0  0  0  0  0  0  0  0  0  0
   13.1528   -8.5335    1.5842 C   0  0  0  0  0  0  0  0  0  0  0  0
   13.1326   -8.6508    0.1952 C   0  0  0  0  0  0  0  0  0  0  0  0
   14.3746   -8.3717   -0.5984 C   0  0  0  0  0  0  0  0  0  0  0  0
   14.3469   -8.0117   -1.8695 N   0  0  0  0  0  0  0  0  0  0  0  0
   15.6495   -7.8341   -2.2967 N   0  0  0  0  0  0  0  0  0  0  0  0
   15.6852   -8.4424   -0.1508 C   0  0  0  0  0  0  0  0  0  0  0  0
   16.4360   -8.0988   -1.2459 N   0  0  0  0  0  0  0  0  0  0  0  0
   17.8723   -7.9717   -1.4752 C   0  0  2  0  0  0  0  0  0  0  0  0
   18.6128   -9.2294   -0.9901 C   0  0  1  0  0  0  0  0  0  0  0  0
   18.2247  -10.3300   -1.7266 O   0  0  0  0  0  0  0  0  0  0  0  0
   18.4278   -6.7273   -0.7622 C   0  0  1  0  0  0  0  0  0  0  0  0
   18.0594   -6.7515    0.5675 O   0  0  0  0  0  0  0  0  0  0  0  0
   19.9644   -6.6641   -0.8562 C   0  0  1  0  0  0  0  0  0  0  0  0
   20.4848   -5.5093   -0.0527 C   0  0  0  0  0  0  0  0  0  0  0  0
   21.8221   -5.3181   -0.3349 O   0  0  0  0  0  0  0  0  0  0  0  0
   20.5330   -7.8771   -0.3539 O   0  0  0  0  0  0  0  0  0  0  0  0
   20.1408   -9.0499   -1.0735 C   0  0  1  0  0  0  0  0  0  0  0  0
   20.9643  -10.4642   -0.3736 S   0  0  0  0  0  0  0  0  0  0  0  0
   22.6578  -10.0777   -0.7625 C   0  0  0  0  0  0  0  0  0  0  0  0
   23.4416   -9.3885    0.1552 C   0  0  0  0  0  0  0  0  0  0  0  0
   24.7639   -9.0867   -0.1485 C   0  0  0  0  0  0  0  0  0  0  0  0
   25.3023   -9.4741   -1.3698 C   0  0  0  0  0  0  0  0  0  0  0  0
   24.5184  -10.1634   -2.2875 C   0  0  0  0  0  0  0  0  0  0  0  0
   23.1962  -10.4652   -1.9838 C   0  0  0  0  0  0  0  0  0  0  0  0
   16.1370   -8.6931    0.7999 H   0  0  0  0  0  0  0  0  0  0  0  0
   18.0004   -7.8640   -2.5546 H   0  0  0  0  0  0  0  0  0  0  0  0
   18.3359   -9.4423    0.0438 H   0  0  0  0  0  0  0  0  0  0  0  0
   18.4193  -10.2732   -2.7059 H   0  0  0  0  0  0  0  0  0  0  0  0
   17.9896   -5.8210   -1.1827 H   0  0  0  0  0  0  0  0  0  0  0  0
   17.4974   -5.9795    0.8644 H   0  0  0  0  0  0  0  0  0  0  0  0
   20.2855   -6.4938   -1.8862 H   0  0  0  0  0  0  0  0  0  0  0  0
   19.9271   -4.6083   -0.3081 H   0  0  0  0  0  0  0  0  0  0  0  0
   20.3645   -5.7222    1.0095 H   0  0  0  0  0  0  0  0  0  0  0  0
   22.2085   -5.9552   -1.0018 H   0  0  0  0  0  0  0  0  0  0  0  0
   20.4696   -8.9836   -2.1130 H   0  0  0  0  0  0  0  0  0  0  0  0
   23.0225   -9.0868    1.1060 H   0  0  0  0  0  0  0  0  0  0  0  0
   25.3742   -8.5500    0.5660 H   0  0  0  0  0  0  0  0  0  0  0  0
   24.9376  -10.4650   -3.2384 H   0  0  0  0  0  0  0  0  0  0  0  0
   22.5859  -11.0018   -2.6983 H   0  0  0  0  0  0  0  0  0  0  0  0
   26.7293   -9.1484   -1.6975 C   0  0  0  0  0  0  0  0  0  0  0  0
   26.9702   -9.5291   -2.6901 H   0  0  0  0  0  0  0  0  0  0  0  0
   27.3861   -9.6119   -0.9613 H   0  0  0  0  0  0  0  0  0  0  0  0
   26.8687   -8.0675   -1.6793 H   0  0  0  0  0  0  0  0  0  0  0  0
    9.7177   -9.4181    2.3772 F   0  0  0  0  0  0  0  0  0  0  0  0
    9.8930   -9.5792   -0.2272 H   0  0  0  0  0  0  0  0  0  0  0  0
   11.9466   -9.1172   -1.5332 H   0  0  0  0  0  0  0  0  0  0  0  0
   12.0118   -8.7024    3.4020 H   0  0  0  0  0  0  0  0  0  0  0  0
   14.0631   -8.2418    2.0869 H   0  0  0  0  0  0  0  0  0  0  0  0
  1  2  2  0
  1  3  1  0
  1 49  1  0
  2  6  1  0
  2 50  1  0
  3  4  2  0
  3 48  1  0
  4  5  1  0
  4 51  1  0
  5  6  2  0
  5 52  1  0
  6  7  1  0
  7  8  1  0
  7 10  2  0
  8  9  2  0
  9 11  1  0
 10 11  1  0
 10 29  1  0
 11 12  1  0
 12 13  1  0
 12 15  1  0
 12 30  1  6
 13 14  1  0
 13 21  1  0
 13 31  1  1
 14 32  1  0
 15 16  1  0
 15 17  1  0
 15 33  1  6
 16 34  1  0
 17 18  1  0
 17 20  1  0
 17 35  1  6
 18 19  1  0
 18 36  1  0
 18 37  1  0
 19 38  1  0
 20 21  1  0
 21 22  1  0
 21 39  1  6
 22 23  1  0
 23 24  2  0
 23 28  1  0
 24 25  1  0
 24 40  1  0
 25 26  2  0
 25 41  1  0
 26 27  1  0
 26 44  1  0
 27 28  2  0
 27 42  1  0
 28 43  1  0
 44 45  1  0
 44 46  1  0
 44 47  1  0
M  END
>  <i_m_Source_File_Index>  (26) 
26

>  <b_m_subgroup_collapsed>  (26) 
0

>  <r_exp_dg>  (26) 
-6.1509

>  <s_m_Source_File>  (26) 
galectin3_extra_ligands.sdf

>  <s_m_Source_Path>  (26) 
/efs/home/chaya/odyssey/projects/openfe-benchmark/Galectin

>  <s_m_entry_id>  (26) 
32

>  <s_m_entry_name>  (26) 
galectin3_extra_ligands.26

>  <s_m_subgroup_title>  (26) 
galectin3_extra_ligands

>  <s_m_subgroupid>  (26) 
galectin3_extra_ligands

>  <experimental dG reference units>  (26) 
kcal/mol

>  <experimental dG reference field>  (26) 
r_exp_dg

>  <kJ/mol experimental dG>  (26) 
-25.7353656

>  <kcal/mol experimental dG>  (26) 
-6.1509

$$$$
