12
     RDKit          3D

 31 33  0  0  1  0  0  0  0  0999 V2000
   -6.1528   12.6410  -11.9088 C   0  0  0  0  0  0  0  0  0  0  0  0
   -6.0817   12.4114  -10.5887 C   0  0  0  0  0  0  0  0  0  0  0  0
   -7.9756    9.3251  -10.9134 C   0  0  0  0  0  0  0  0  0  0  0  0
   -6.7089   11.2368  -10.1462 C   0  0  0  0  0  0  0  0  0  0  0  0
   -6.8155   10.6731   -8.8396 C   0  0  0  0  0  0  0  0  0  0  0  0
   -7.4863    9.4801   -8.6710 C   0  0  0  0  0  0  0  0  0  0  0  0
   -7.3075   10.5284  -11.1981 C   0  0  0  0  0  0  0  0  0  0  0  0
   -4.7183   14.6295  -11.9804 O   0  0  0  0  0  0  0  0  0  0  0  0
   -5.5682   13.7780  -12.6231 C   0  0  0  0  0  0  0  0  0  0  0  0
   -5.8085   13.9332  -13.8064 O   0  0  0  0  0  0  0  0  0  0  0  0
   -8.0338    8.8326   -9.6900 N   0  0  0  0  0  0  0  0  0  0  0  0
   -7.0595   11.3907  -12.7239 S   0  0  0  0  0  0  0  0  0  0  0  0
   -6.3055   11.2854   -7.7404 O   0  0  0  0  0  0  0  0  0  0  0  0
   -4.9940   11.5171   -7.4628 C   0  0  0  0  0  0  0  0  0  0  0  0
   -4.7046   12.3853   -6.4198 C   0  0  0  0  0  0  0  0  0  0  0  0
   -3.3978   12.6669   -6.0790 C   0  0  0  0  0  0  0  0  0  0  0  0
   -2.3503   12.0833   -6.7665 C   0  0  0  0  0  0  0  0  0  0  0  0
   -2.6416   11.2071   -7.8066 C   0  0  0  0  0  0  0  0  0  0  0  0
   -3.9535   10.9195   -8.1573 C   0  0  0  0  0  0  0  0  0  0  0  0
   -0.7264   12.4563   -6.3008 Cl  0  0  0  0  0  0  0  0  0  0  0  0
   -5.5664   13.1099   -9.9461 H   0  0  0  0  0  0  0  0  0  0  0  0
   -8.4602    8.7758  -11.7070 H   0  0  0  0  0  0  0  0  0  0  0  0
   -7.5776    9.0464   -7.6860 H   0  0  0  0  0  0  0  0  0  0  0  0
   -5.5067   12.8489   -5.8647 H   0  0  0  0  0  0  0  0  0  0  0  0
   -3.1859   13.3487   -5.2687 H   0  0  0  0  0  0  0  0  0  0  0  0
   -1.8402   10.7370   -8.3572 H   0  0  0  0  0  0  0  0  0  0  0  0
   -4.1663   10.2352   -8.9653 H   0  0  0  0  0  0  0  0  0  0  0  0
   -4.2666   15.6982  -12.9311 C   0  0  0  0  0  0  0  0  0  0  0  0
   -3.5874   16.3787  -12.4175 H   0  0  0  0  0  0  0  0  0  0  0  0
   -3.7514   15.2401  -13.7754 H   0  0  0  0  0  0  0  0  0  0  0  0
   -5.1322   16.2536  -13.2922 H   0  0  0  0  0  0  0  0  0  0  0  0
  1  2  2  0
  1  9  1  0
  1 12  1  0
  2  4  1  0
  2 21  1  0
  3  7  2  0
  3 11  1  0
  3 22  1  0
  4  5  2  0
  4  7  1  0
  5  6  1  0
  5 13  1  0
  6 11  2  0
  6 23  1  0
  7 12  1  0
  8  9  1  0
  8 28  1  0
  9 10  2  0
 13 14  1  0
 14 15  2  0
 14 19  1  0
 15 16  1  0
 15 24  1  0
 16 17  2  0
 16 25  1  0
 17 18  1  0
 17 20  1  0
 18 19  2  0
 18 26  1  0
 19 27  1  0
 28 29  1  0
 28 30  1  0
 28 31  1  0
M  END
>  <r_exp_dg>  (1) 
-9.83296

>  <experimental dG reference units>  (1) 
kcal/mol

>  <experimental dG reference field>  (1) 
r_exp_dg

>  <kJ/mol experimental dG>  (1) 
-41.14110464

>  <kcal/mol experimental dG>  (1) 
-9.83296

>  <AmberAM1BCCCache>  (1) 
gASVqAIAAAAAAABdlCiMFm51bXB5Ll9jb3JlLm11bHRpYXJyYXmUjAZzY2FsYXKUk5SMBW51bXB5lIwFZHR5cGWUk5SMAmY4lImIh5RSlChLA4wBPJROTk5K/////0r/////SwB0lGJDCI5Ga5sOdgDAlIaUUpRoA2gJQwhg+irYdMbZv5SGlFKUaANoCUMIQNq8i6JvE0CUhpRSlGgDaAlDCF8+G9YYr/G/lIaUUpRoA2gJQwgjOR+6mK7kP5SGlFKUaANoCUMIpItwpYhKDkCUhpRSlGgDaAlDCJdttQYC/QLAlIaUUpRoA2gJQwh/Gnl1VdUUwJSGlFKUaANoCUMIXI7oZvemH0CUhpRSlGgDaAlDCEucky992BjAlIaUUpRoA2gJQwj9KxQRI1MdwJSGlFKUaANoCUMI+lP9O8gsAECUhpRSlGgDaAlDCM+INZeo/AXAlIaUUpRoA2gJQwgux0WjTM/wP5SGlFKUaANoCUMIk6DpuREF+r+UhpRSlGgDaAlDCEA6LNb44/O/lIaUUpRoA2gJQwgc/GEFVGSwP5SGlFKUaANoCUMIQDos1vjj87+UhpRSlGgDaAlDCJOg6bkRBfq/lIaUUpRoA2gJQwiy/zy1ixnwv5SGlFKUaANoCUMImSo6PjvTAUCUhpRSlGgDaAlDCNFSq35gPdg/lIaUUpRoA2gJQwiBuyqOVUbeP5SGlFKUaANoCUMI4O62mF2F/T+UhpRSlGgDaAlDCLL6gHOqDP0/lIaUUpRoA2gJQwiy+oBzqgz9P5SGlFKUaANoCUMI4O62mF2F/T+UhpRSlGgDaAlDCM2gIsJ2d/g/lIaUUpRoA2gJQwj3WO4CiWTkP5SGlFKUaANoCUMI91juAolk5D+UhpRSlGgDaAlDCPdY7gKJZOQ/lIaUUpRlLg==

$$$$
13
     RDKit          3D

 29 31  0  0  1  0  0  0  0  0999 V2000
   -6.1528   12.6410  -11.9088 C   0  0  0  0  0  0  0  0  0  0  0  0
   -6.0817   12.4114  -10.5887 C   0  0  0  0  0  0  0  0  0  0  0  0
   -7.9756    9.3251  -10.9134 C   0  0  0  0  0  0  0  0  0  0  0  0
   -6.7089   11.2368  -10.1462 C   0  0  0  0  0  0  0  0  0  0  0  0
   -6.8155   10.6731   -8.8396 C   0  0  0  0  0  0  0  0  0  0  0  0
   -7.4863    9.4801   -8.6710 C   0  0  0  0  0  0  0  0  0  0  0  0
   -7.3075   10.5284  -11.1981 C   0  0  0  0  0  0  0  0  0  0  0  0
   -4.7302   14.6175  -11.9895 N   0  0  0  0  0  0  0  0  0  0  0  0
   -5.5682   13.7780  -12.6231 C   0  0  0  0  0  0  0  0  0  0  0  0
   -5.8085   13.9332  -13.8064 O   0  0  0  0  0  0  0  0  0  0  0  0
   -8.0338    8.8326   -9.6900 N   0  0  0  0  0  0  0  0  0  0  0  0
   -7.0595   11.3907  -12.7239 S   0  0  0  0  0  0  0  0  0  0  0  0
   -6.3055   11.2854   -7.7404 O   0  0  0  0  0  0  0  0  0  0  0  0
   -4.9940   11.5171   -7.4628 C   0  0  0  0  0  0  0  0  0  0  0  0
   -4.7046   12.3853   -6.4198 C   0  0  0  0  0  0  0  0  0  0  0  0
   -3.3978   12.6669   -6.0790 C   0  0  0  0  0  0  0  0  0  0  0  0
   -2.3503   12.0833   -6.7665 C   0  0  0  0  0  0  0  0  0  0  0  0
   -2.6416   11.2071   -7.8066 C   0  0  0  0  0  0  0  0  0  0  0  0
   -3.9535   10.9195   -8.1573 C   0  0  0  0  0  0  0  0  0  0  0  0
   -0.7264   12.4563   -6.3008 Cl  0  0  0  0  0  0  0  0  0  0  0  0
   -5.5664   13.1099   -9.9461 H   0  0  0  0  0  0  0  0  0  0  0  0
   -8.4602    8.7758  -11.7070 H   0  0  0  0  0  0  0  0  0  0  0  0
   -7.5776    9.0464   -7.6860 H   0  0  0  0  0  0  0  0  0  0  0  0
   -5.5067   12.8489   -5.8647 H   0  0  0  0  0  0  0  0  0  0  0  0
   -3.1859   13.3487   -5.2687 H   0  0  0  0  0  0  0  0  0  0  0  0
   -1.8402   10.7370   -8.3572 H   0  0  0  0  0  0  0  0  0  0  0  0
   -4.1663   10.2352   -8.9653 H   0  0  0  0  0  0  0  0  0  0  0  0
   -4.3207   15.3943  -12.4884 H   0  0  0  0  0  0  0  0  0  0  0  0
   -4.5104   14.4713  -11.0146 H   0  0  0  0  0  0  0  0  0  0  0  0
  1  2  2  0
  1  9  1  0
  1 12  1  0
  2  4  1  0
  2 21  1  0
  3  7  2  0
  3 11  1  0
  3 22  1  0
  4  5  2  0
  4  7  1  0
  5  6  1  0
  5 13  1  0
  6 11  2  0
  6 23  1  0
  7 12  1  0
  8  9  1  0
  8 28  1  0
  8 29  1  0
  9 10  2  0
 13 14  1  0
 14 15  2  0
 14 19  1  0
 15 16  1  0
 15 24  1  0
 16 17  2  0
 16 25  1  0
 17 18  1  0
 17 20  1  0
 18 19  2  0
 18 26  1  0
 19 27  1  0
M  END
>  <r_exp_dg>  (2) 
-11.1972

>  <experimental dG reference units>  (2) 
kcal/mol

>  <experimental dG reference field>  (2) 
r_exp_dg

>  <kJ/mol experimental dG>  (2) 
-46.84908480000001

>  <kcal/mol experimental dG>  (2) 
-11.1972

>  <AmberAM1BCCCache>  (2) 
gASVggIAAAAAAABdlCiMFm51bXB5Ll9jb3JlLm11bHRpYXJyYXmUjAZzY2FsYXKUk5SMBW51bXB5lIwFZHR5cGWUk5SMAmY4lImIh5RSlChLA4wBPJROTk5K/////0r/////SwB0lGJDCF0yo1OyXgDAlIaUUpRoA2gJQwjFa/r3c0rYv5SGlFKUaANoCUMIteZi2yxjE0CUhpRSlGgDaAlDCOgom6RBv/C/lIaUUpRoA2gJQwi5r1+VzInjP5SGlFKUaANoCUMIYJYwPnTCDkCUhpRSlGgDaAlDCMiPW61tugDAlIaUUpRoA2gJQwgQ4rlPPNMfwJSGlFKUaANoCUMIrTsYk02CIECUhpRSlGgDaAlDCOkm2iPYDhzAlIaUUpRoA2gJQwhZHo2rqmsdwJSGlFKUaANoCUMIRmVJzHeX6j+UhpRSlGgDaAlDCJ50bU9M5QXAlIaUUpRoA2gJQwiP79UyBf7wP5SGlFKUaANoCUMIvW5Re+g2+r+UhpRSlGgDaAlDCIEP2hpkzfO/lIaUUpRoA2gJQwgAM8rdz42qP5SGlFKUaANoCUMIgQ/aGmTN87+UhpRSlGgDaAlDCL1uUXvoNvq/lIaUUpRoA2gJQwiW0ijOGhvwv5SGlFKUaANoCUMIsje8AgMzAkCUhpRSlGgDaAlDCD8H/BokN9g/lIaUUpRoA2gJQwjvb3sqGUDeP5SGlFKUaANoCUMInxkJVPKb/T+UhpRSlGgDaAlDCM4nlVobC/0/lIaUUpRoA2gJQwjOJ5VaGwv9P5SGlFKUaANoCUMInxkJVPKb/T+UhpRSlGgDaAlDCEIXRygWtA1AlIaUUpRoA2gJQwhCF0coFrQNQJSGlFKUZS4=

$$$$
14
     RDKit          3D

 32 34  0  0  1  0  0  0  0  0999 V2000
   -6.1528   12.6410  -11.9088 C   0  0  0  0  0  0  0  0  0  0  0  0
   -6.0817   12.4114  -10.5887 C   0  0  0  0  0  0  0  0  0  0  0  0
   -7.9756    9.3251  -10.9134 C   0  0  0  0  0  0  0  0  0  0  0  0
   -6.7089   11.2368  -10.1462 C   0  0  0  0  0  0  0  0  0  0  0  0
   -6.8155   10.6731   -8.8396 C   0  0  0  0  0  0  0  0  0  0  0  0
   -7.4863    9.4801   -8.6710 C   0  0  0  0  0  0  0  0  0  0  0  0
   -7.3075   10.5284  -11.1981 C   0  0  0  0  0  0  0  0  0  0  0  0
   -4.7302   14.6175  -11.9895 N   0  0  0  0  0  0  0  0  0  0  0  0
   -5.5682   13.7780  -12.6231 C   0  0  0  0  0  0  0  0  0  0  0  0
   -4.1549   15.7326  -12.7427 C   0  0  0  0  0  0  0  0  0  0  0  0
   -5.8085   13.9332  -13.8064 O   0  0  0  0  0  0  0  0  0  0  0  0
   -8.0338    8.8326   -9.6900 N   0  0  0  0  0  0  0  0  0  0  0  0
   -7.0595   11.3907  -12.7239 S   0  0  0  0  0  0  0  0  0  0  0  0
   -6.3055   11.2854   -7.7404 O   0  0  0  0  0  0  0  0  0  0  0  0
   -4.9940   11.5171   -7.4628 C   0  0  0  0  0  0  0  0  0  0  0  0
   -4.7046   12.3853   -6.4198 C   0  0  0  0  0  0  0  0  0  0  0  0
   -3.3978   12.6669   -6.0790 C   0  0  0  0  0  0  0  0  0  0  0  0
   -2.3503   12.0833   -6.7665 C   0  0  0  0  0  0  0  0  0  0  0  0
   -2.6416   11.2071   -7.8066 C   0  0  0  0  0  0  0  0  0  0  0  0
   -3.9535   10.9195   -8.1573 C   0  0  0  0  0  0  0  0  0  0  0  0
   -0.7264   12.4563   -6.3008 Cl  0  0  0  0  0  0  0  0  0  0  0  0
   -5.5664   13.1099   -9.9461 H   0  0  0  0  0  0  0  0  0  0  0  0
   -8.4602    8.7758  -11.7070 H   0  0  0  0  0  0  0  0  0  0  0  0
   -7.5776    9.0464   -7.6860 H   0  0  0  0  0  0  0  0  0  0  0  0
   -4.5104   14.4713  -11.0146 H   0  0  0  0  0  0  0  0  0  0  0  0
   -3.5028   16.3140  -12.0909 H   0  0  0  0  0  0  0  0  0  0  0  0
   -3.5771   15.3452  -13.5819 H   0  0  0  0  0  0  0  0  0  0  0  0
   -4.9556   16.3704  -13.1172 H   0  0  0  0  0  0  0  0  0  0  0  0
   -5.5067   12.8489   -5.8647 H   0  0  0  0  0  0  0  0  0  0  0  0
   -3.1859   13.3487   -5.2687 H   0  0  0  0  0  0  0  0  0  0  0  0
   -1.8402   10.7370   -8.3572 H   0  0  0  0  0  0  0  0  0  0  0  0
   -4.1663   10.2352   -8.9653 H   0  0  0  0  0  0  0  0  0  0  0  0
  1  2  2  0
  1  9  1  0
  1 13  1  0
  2  4  1  0
  2 22  1  0
  3  7  2  0
  3 12  1  0
  3 23  1  0
  4  5  2  0
  4  7  1  0
  5  6  1  0
  5 14  1  0
  6 12  2  0
  6 24  1  0
  7 13  1  0
  8  9  1  0
  8 10  1  0
  8 25  1  0
  9 11  2  0
 10 26  1  0
 10 27  1  0
 10 28  1  0
 14 15  1  0
 15 16  2  0
 15 20  1  0
 16 17  1  0
 16 29  1  0
 17 18  2  0
 17 30  1  0
 18 19  1  0
 18 21  1  0
 19 20  2  0
 19 31  1  0
 20 32  1  0
M  END
>  <r_exp_dg>  (3) 
-11.0316

>  <experimental dG reference units>  (3) 
kcal/mol

>  <experimental dG reference field>  (3) 
r_exp_dg

>  <kJ/mol experimental dG>  (3) 
-46.156214399999996

>  <kcal/mol experimental dG>  (3) 
-11.0316

>  <AmberAM1BCCCache>  (3) 
gASVuwIAAAAAAABdlCiMFm51bXB5Ll9jb3JlLm11bHRpYXJyYXmUjAZzY2FsYXKUk5SMBW51bXB5lIwFZHR5cGWUk5SMAmY4lImIh5RSlChLA4wBPJROTk5K/////0r/////SwB0lGJDCJd8E4WyXgDAlIaUUpRoA2gJQwinqmwllAvZv5SGlFKUaANoCUMImMGqwixjE0CUhpRSlGgDaAlDCBbC/176jvC/lIaUUpRoA2gJQwjThp7Py4njP5SGlFKUaANoCUMIg06COFCqDkCUhpRSlGgDaAlDCAHay95tugDAlIaUUpRoA2gJQwgbl4b2BxsbwJSGlFKUaANoCUMItqmskUR8IECUhpRSlGgDaAlDCMCCQQIx6e0/lIaUUpRoA2gJQwjBUBaUkN4bwJSGlFKUaANoCUMIdkNFxKprHcCUhpRSlGgDaAlDCOoygFcG+Oo/lIaUUpRoA2gJQwg0wZ+sKM0FwJSGlFKUaANoCUMIHFv1zwT+8D+UhpRSlGgDaAlDCI0F9AnFHvq/lIaUUpRoA2gJQwiXofhRiOXzv5SGlFKUaANoCUMIp4abSFxLsD+UhpRSlGgDaAlDCJeh+FGI5fO/lIaUUpRoA2gJQwiNBfQJxR76v5SGlFKUaANoCUMICGcJMRsb8L+UhpRSlGgDaAlDCNbvDf3eGgJAlIaUUpRoA2gJQwh0tXmPIjfYP5SGlFKUaANoCUMIJB75nhdA3j+UhpRSlGgDaAlDCGXcQxMtFw1AlIaUUpRoA2gJQwg6OwHEL33hP5SGlFKUaANoCUMIOjsBxC994T+UhpRSlGgDaAlDCDo7AcQvfeE/lIaUUpRoA2gJQwiJh+oczoP9P5SGlFKUaANoCUMIW5O09xoL/T+UhpRSlGgDaAlDCFuTtPcaC/0/lIaUUpRoA2gJQwiJh+oczoP9P5SGlFKUZS4=

$$$$
15
     RDKit          3D

 35 37  0  0  1  0  0  0  0  0999 V2000
   -6.1528   12.6410  -11.9088 C   0  0  0  0  0  0  0  0  0  0  0  0
   -6.0817   12.4114  -10.5887 C   0  0  0  0  0  0  0  0  0  0  0  0
   -7.9756    9.3251  -10.9134 C   0  0  0  0  0  0  0  0  0  0  0  0
   -6.7089   11.2368  -10.1462 C   0  0  0  0  0  0  0  0  0  0  0  0
   -6.8155   10.6731   -8.8396 C   0  0  0  0  0  0  0  0  0  0  0  0
   -7.4863    9.4801   -8.6710 C   0  0  0  0  0  0  0  0  0  0  0  0
   -7.3075   10.5284  -11.1981 C   0  0  0  0  0  0  0  0  0  0  0  0
   -4.7302   14.6175  -11.9895 N   0  0  0  0  0  0  0  0  0  0  0  0
   -5.5682   13.7780  -12.6231 C   0  0  0  0  0  0  0  0  0  0  0  0
   -5.8085   13.9332  -13.8064 O   0  0  0  0  0  0  0  0  0  0  0  0
   -8.0338    8.8326   -9.6900 N   0  0  0  0  0  0  0  0  0  0  0  0
   -7.0595   11.3907  -12.7239 S   0  0  0  0  0  0  0  0  0  0  0  0
   -6.3055   11.2854   -7.7404 O   0  0  0  0  0  0  0  0  0  0  0  0
   -4.9940   11.5171   -7.4628 C   0  0  0  0  0  0  0  0  0  0  0  0
   -4.7046   12.3853   -6.4198 C   0  0  0  0  0  0  0  0  0  0  0  0
   -3.3978   12.6669   -6.0790 C   0  0  0  0  0  0  0  0  0  0  0  0
   -2.3503   12.0833   -6.7665 C   0  0  0  0  0  0  0  0  0  0  0  0
   -2.6416   11.2071   -7.8066 C   0  0  0  0  0  0  0  0  0  0  0  0
   -3.9535   10.9195   -8.1573 C   0  0  0  0  0  0  0  0  0  0  0  0
   -0.7264   12.4563   -6.3008 Cl  0  0  0  0  0  0  0  0  0  0  0  0
   -5.5664   13.1099   -9.9461 H   0  0  0  0  0  0  0  0  0  0  0  0
   -8.4602    8.7758  -11.7070 H   0  0  0  0  0  0  0  0  0  0  0  0
   -7.5776    9.0464   -7.6860 H   0  0  0  0  0  0  0  0  0  0  0  0
   -4.3994   14.3974  -10.5223 C   0  0  0  0  0  0  0  0  0  0  0  0
   -5.5067   12.8489   -5.8647 H   0  0  0  0  0  0  0  0  0  0  0  0
   -3.1859   13.3487   -5.2687 H   0  0  0  0  0  0  0  0  0  0  0  0
   -1.8402   10.7370   -8.3572 H   0  0  0  0  0  0  0  0  0  0  0  0
   -4.1663   10.2352   -8.9653 H   0  0  0  0  0  0  0  0  0  0  0  0
   -4.1140   15.7866  -12.7404 C   0  0  0  0  0  0  0  0  0  0  0  0
   -3.7101   15.1713  -10.1847 H   0  0  0  0  0  0  0  0  0  0  0  0
   -5.3146   14.4440   -9.9320 H   0  0  0  0  0  0  0  0  0  0  0  0
   -3.9361   13.4188  -10.3967 H   0  0  0  0  0  0  0  0  0  0  0  0
   -3.4677   16.3508  -12.0681 H   0  0  0  0  0  0  0  0  0  0  0  0
   -3.5266   15.4116  -13.5785 H   0  0  0  0  0  0  0  0  0  0  0  0
   -4.9050   16.4368  -13.1139 H   0  0  0  0  0  0  0  0  0  0  0  0
  1  2  2  0
  1  9  1  0
  1 12  1  0
  2  4  1  0
  2 21  1  0
  3  7  2  0
  3 11  1  0
  3 22  1  0
  4  5  2  0
  4  7  1  0
  5  6  1  0
  5 13  1  0
  6 11  2  0
  6 23  1  0
  7 12  1  0
  8  9  1  0
  8 24  1  0
  8 29  1  0
  9 10  2  0
 13 14  1  0
 14 15  2  0
 14 19  1  0
 15 16  1  0
 15 25  1  0
 16 17  2  0
 16 26  1  0
 17 18  1  0
 17 20  1  0
 18 19  2  0
 18 27  1  0
 19 28  1  0
 24 30  1  0
 24 31  1  0
 24 32  1  0
 29 33  1  0
 29 34  1  0
 29 35  1  0
M  END
>  <r_exp_dg>  (4) 
-9.72018

>  <experimental dG reference units>  (4) 
kcal/mol

>  <experimental dG reference field>  (4) 
r_exp_dg

>  <kJ/mol experimental dG>  (4) 
-40.66923312

>  <kcal/mol experimental dG>  (4) 
-9.72018

>  <AmberAM1BCCCache>  (4) 
gASV9AIAAAAAAABdlCiMFm51bXB5Ll9jb3JlLm11bHRpYXJyYXmUjAZzY2FsYXKUk5SMBW51bXB5lIwFZHR5cGWUk5SMAmY4lImIh5RSlChLA4wBPJROTk5K/////0r/////SwB0lGJDCI3j/bEEN/+/lIaUUpRoA2gJQwhU+UAuUA3wv5SGlFKUaANoCUMIowTzrOjcE0CUhpRSlGgDaAlDCNZrvWsVUO2/lIaUUpRoA2gJQwhv3iJZtBbeP5SGlFKUaANoCUMIsdtYkFxVD0CUhpRSlGgDaAlDCOXr4oQe7QPAlIaUUpRoA2gJQwgV3u0scSUWwJSGlFKUaANoCUMI61IHFa5qIECUhpRSlGgDaAlDCCn9f3fPDRzAlIaUUpRoA2gJQwiC7ex7DbMdwJSGlFKUaANoCUMI+o6HbgWb/z+UhpRSlGgDaAlDCEsV7xvuWwbAlIaUUpRoA2gJQwimgy6GRsPxP5SGlFKUaANoCUMIdLIWQAgM+7+UhpRSlGgDaAlDCPVxeRiyaPO/lIaUUpRoA2gJQwggssG4je6RP5SGlFKUaANoCUMI9XF5GLJo87+UhpRSlGgDaAlDCHSyFkAIDPu/lIaUUpRoA2gJQwjbJjzFP0fwv5SGlFKUaANoCUMIwbUUb4+CAECUhpRSlGgDaAlDCEWjnuCuR9g/lIaUUpRoA2gJQwjKMT6sZs7cP5SGlFKUaANoCUMIHQPc2eeQ7T+UhpRSlGgDaAlDCFrF9VzNb/0/lIaUUpRoA2gJQwgs0b83Gvf8P5SGlFKUaANoCUMILNG/Nxr3/D+UhpRSlGgDaAlDCFrF9VzNb/0/lIaUUpRoA2gJQwgdA9zZ55DtP5SGlFKUaANoCUMI3bYXRC5V4T+UhpRSlGgDaAlDCN22F0QuVeE/lIaUUpRoA2gJQwjdthdELlXhP5SGlFKUaANoCUMI3bYXRC5V4T+UhpRSlGgDaAlDCN22F0QuVeE/lIaUUpRoA2gJQwjdthdELlXhP5SGlFKUZS4=

$$$$
16
     RDKit          3D

 35 37  0  0  1  0  0  0  0  0999 V2000
   -6.1528   12.6410  -11.9088 C   0  0  0  0  0  0  0  0  0  0  0  0
   -6.0817   12.4114  -10.5887 C   0  0  0  0  0  0  0  0  0  0  0  0
   -7.9756    9.3251  -10.9134 C   0  0  0  0  0  0  0  0  0  0  0  0
   -6.7089   11.2368  -10.1462 C   0  0  0  0  0  0  0  0  0  0  0  0
   -6.8155   10.6731   -8.8396 C   0  0  0  0  0  0  0  0  0  0  0  0
   -7.4863    9.4801   -8.6710 C   0  0  0  0  0  0  0  0  0  0  0  0
   -7.3075   10.5284  -11.1981 C   0  0  0  0  0  0  0  0  0  0  0  0
   -4.7302   14.6175  -11.9895 N   0  0  0  0  0  0  0  0  0  0  0  0
   -5.5682   13.7780  -12.6231 C   0  0  0  0  0  0  0  0  0  0  0  0
   -5.8085   13.9332  -13.8064 O   0  0  0  0  0  0  0  0  0  0  0  0
   -8.0338    8.8326   -9.6900 N   0  0  0  0  0  0  0  0  0  0  0  0
   -7.0595   11.3907  -12.7239 S   0  0  0  0  0  0  0  0  0  0  0  0
   -6.3055   11.2854   -7.7404 O   0  0  0  0  0  0  0  0  0  0  0  0
   -4.9940   11.5171   -7.4628 C   0  0  0  0  0  0  0  0  0  0  0  0
   -4.7046   12.3853   -6.4198 C   0  0  0  0  0  0  0  0  0  0  0  0
   -3.3978   12.6669   -6.0790 C   0  0  0  0  0  0  0  0  0  0  0  0
   -2.3503   12.0833   -6.7665 C   0  0  0  0  0  0  0  0  0  0  0  0
   -2.6416   11.2071   -7.8066 C   0  0  0  0  0  0  0  0  0  0  0  0
   -3.9535   10.9195   -8.1573 C   0  0  0  0  0  0  0  0  0  0  0  0
   -0.7264   12.4563   -6.3008 Cl  0  0  0  0  0  0  0  0  0  0  0  0
   -5.5664   13.1099   -9.9461 H   0  0  0  0  0  0  0  0  0  0  0  0
   -8.4602    8.7758  -11.7070 H   0  0  0  0  0  0  0  0  0  0  0  0
   -7.5776    9.0464   -7.6860 H   0  0  0  0  0  0  0  0  0  0  0  0
   -5.5067   12.8489   -5.8647 H   0  0  0  0  0  0  0  0  0  0  0  0
   -3.1859   13.3487   -5.2687 H   0  0  0  0  0  0  0  0  0  0  0  0
   -1.8402   10.7370   -8.3572 H   0  0  0  0  0  0  0  0  0  0  0  0
   -4.1663   10.2352   -8.9653 H   0  0  0  0  0  0  0  0  0  0  0  0
   -4.7906   16.5861  -12.8413 H   0  0  0  0  0  0  0  0  0  0  0  0
   -4.5104   14.4713  -11.0146 H   0  0  0  0  0  0  0  0  0  0  0  0
   -4.1428   15.7396  -12.7524 C   0  0  0  0  0  0  0  0  0  0  0  0
   -3.8623   15.3929  -13.7470 H   0  0  0  0  0  0  0  0  0  0  0  0
   -2.8231   16.1737  -12.0879 C   0  0  0  0  0  0  0  0  0  0  0  0
   -2.3882   17.0010  -12.6488 H   0  0  0  0  0  0  0  0  0  0  0  0
   -3.0190   16.4927  -11.0642 H   0  0  0  0  0  0  0  0  0  0  0  0
   -2.1268   15.3351  -12.0797 H   0  0  0  0  0  0  0  0  0  0  0  0
  1  2  2  0
  1  9  1  0
  1 12  1  0
  2  4  1  0
  2 21  1  0
  3  7  2  0
  3 11  1  0
  3 22  1  0
  4  5  2  0
  4  7  1  0
  5  6  1  0
  5 13  1  0
  6 11  2  0
  6 23  1  0
  7 12  1  0
  8  9  1  0
  8 29  1  0
  8 30  1  0
  9 10  2  0
 13 14  1  0
 14 15  2  0
 14 19  1  0
 15 16  1  0
 15 24  1  0
 16 17  2  0
 16 25  1  0
 17 18  1  0
 17 20  1  0
 18 19  2  0
 18 26  1  0
 19 27  1  0
 28 30  1  0
 30 31  1  0
 30 32  1  0
 32 33  1  0
 32 34  1  0
 32 35  1  0
M  END
>  <r_exp_dg>  (5) 
-10.6355

>  <experimental dG reference units>  (5) 
kcal/mol

>  <experimental dG reference field>  (5) 
r_exp_dg

>  <kJ/mol experimental dG>  (5) 
-44.498932

>  <kcal/mol experimental dG>  (5) 
-10.6355

>  <AmberAM1BCCCache>  (5) 
gASV9AIAAAAAAABdlCiMFm51bXB5Ll9jb3JlLm11bHRpYXJyYXmUjAZzY2FsYXKUk5SMBW51bXB5lIwFZHR5cGWUk5SMAmY4lImIh5RSlChLA4wBPJROTk5K/////0r/////SwB0lGJDCCZBZmHOpwDAlIaUUpRoA2gJQwgxvPKpkRXcv5SGlFKUaANoCUMIllr9fOZuE0CUhpRSlGgDaAlDCB5etXUTYPC/lIaUUpRoA2gJQwgja0uv68XiP5SGlFKUaANoCUMII35lgefZDkCUhpRSlGgDaAlDCNaZmmPRMwHAlIaUUpRoA2gJQwioDoJuU2YawJSGlFKUaANoCUMIWXppu+JXIECUhpRSlGgDaAlDCHy8RzGPohvAlIaUUpRoA2gJQwgaqDDeFHgdwJSGlFKUaANoCUMISpzEU20b7z+UhpRSlGgDaAlDCH6KduD85QXAlIaUUpRoA2gJQwgUvz+56yzxP5SGlFKUaANoCUMIw5XfRZFo+r+UhpRSlGgDaAlDCPw/cJR9nvO/lIaUUpRoA2gJQwgBu4Sbq2GqP5SGlFKUaANoCUMI/D9wlH2e87+UhpRSlGgDaAlDCMOV30WRaPq/lIaUUpRoA2gJQwic+baYw0zwv5SGlFKUaANoCUMIjSY3yQoCAkCUhpRSlGgDaAlDCEFYs5KfMdg/lIaUUpRoA2gJQwjxwDKilDreP5SGlFKUaANoCUMIPPC4XW2C/T+UhpRSlGgDaAlDCA78gji6Cf0/lIaUUpRoA2gJQwgO/II4ugn9P5SGlFKUaANoCUMIPPC4XW2C/T+UhpRSlGgDaAlDCEumzyfxlOg/lIaUUpRoA2gJQwjvHje6pYUMQJSGlFKUaANoCUMI77NYCQcq7j+UhpRSlGgDaAlDCEumzyfxlOg/lIaUUpRoA2gJQwiLel+16mj3v5SGlFKUaANoCUMIFXsEilgY4D+UhpRSlGgDaAlDCBV7BIpYGOA/lIaUUpRoA2gJQwgVewSKWBjgP5SGlFKUZS4=

$$$$
17
     RDKit          3D

 36 39  0  0  1  0  0  0  0  0999 V2000
   -6.1528   12.6410  -11.9088 C   0  0  0  0  0  0  0  0  0  0  0  0
   -6.0817   12.4114  -10.5887 C   0  0  0  0  0  0  0  0  0  0  0  0
   -7.9756    9.3251  -10.9134 C   0  0  0  0  0  0  0  0  0  0  0  0
   -6.7089   11.2368  -10.1462 C   0  0  0  0  0  0  0  0  0  0  0  0
   -6.8155   10.6731   -8.8396 C   0  0  0  0  0  0  0  0  0  0  0  0
   -7.4863    9.4801   -8.6710 C   0  0  0  0  0  0  0  0  0  0  0  0
   -7.3075   10.5284  -11.1981 C   0  0  0  0  0  0  0  0  0  0  0  0
   -4.7302   14.6175  -11.9895 N   0  0  0  0  0  0  0  0  0  0  0  0
   -5.5682   13.7780  -12.6231 C   0  0  0  0  0  0  0  0  0  0  0  0
   -5.8085   13.9332  -13.8064 O   0  0  0  0  0  0  0  0  0  0  0  0
   -8.0338    8.8326   -9.6900 N   0  0  0  0  0  0  0  0  0  0  0  0
   -7.0595   11.3907  -12.7239 S   0  0  0  0  0  0  0  0  0  0  0  0
   -6.3055   11.2854   -7.7404 O   0  0  0  0  0  0  0  0  0  0  0  0
   -4.9940   11.5171   -7.4628 C   0  0  0  0  0  0  0  0  0  0  0  0
   -4.7046   12.3853   -6.4198 C   0  0  0  0  0  0  0  0  0  0  0  0
   -3.3978   12.6669   -6.0790 C   0  0  0  0  0  0  0  0  0  0  0  0
   -2.3503   12.0833   -6.7665 C   0  0  0  0  0  0  0  0  0  0  0  0
   -2.6416   11.2071   -7.8066 C   0  0  0  0  0  0  0  0  0  0  0  0
   -3.9535   10.9195   -8.1573 C   0  0  0  0  0  0  0  0  0  0  0  0
   -0.7264   12.4563   -6.3008 Cl  0  0  0  0  0  0  0  0  0  0  0  0
   -5.5664   13.1099   -9.9461 H   0  0  0  0  0  0  0  0  0  0  0  0
   -8.4602    8.7758  -11.7070 H   0  0  0  0  0  0  0  0  0  0  0  0
   -7.5776    9.0464   -7.6860 H   0  0  0  0  0  0  0  0  0  0  0  0
   -5.5067   12.8489   -5.8647 H   0  0  0  0  0  0  0  0  0  0  0  0
   -3.1859   13.3487   -5.2687 H   0  0  0  0  0  0  0  0  0  0  0  0
   -1.8402   10.7370   -8.3572 H   0  0  0  0  0  0  0  0  0  0  0  0
   -4.1663   10.2352   -8.9653 H   0  0  0  0  0  0  0  0  0  0  0  0
   -4.8690   16.4136  -13.1554 H   0  0  0  0  0  0  0  0  0  0  0  0
   -4.5104   14.4713  -11.0146 H   0  0  0  0  0  0  0  0  0  0  0  0
   -4.1428   15.7396  -12.7524 C   0  0  0  0  0  0  0  0  0  0  0  0
   -2.8230   16.2887  -12.2783 C   0  0  0  0  0  0  0  0  0  0  0  0
   -2.8874   15.4660  -13.5381 C   0  0  0  0  0  0  0  0  0  0  0  0
   -2.6716   17.3848  -12.4182 H   0  0  0  0  0  0  0  0  0  0  0  0
   -2.3759   15.7857  -11.3889 H   0  0  0  0  0  0  0  0  0  0  0  0
   -2.7779   16.0285  -14.4950 H   0  0  0  0  0  0  0  0  0  0  0  0
   -2.4822   14.4294  -13.4657 H   0  0  0  0  0  0  0  0  0  0  0  0
  1  2  2  0
  1  9  1  0
  1 12  1  0
  2  4  1  0
  2 21  1  0
  3  7  2  0
  3 11  1  0
  3 22  1  0
  4  5  2  0
  4  7  1  0
  5  6  1  0
  5 13  1  0
  6 11  2  0
  6 23  1  0
  7 12  1  0
  8  9  1  0
  8 29  1  0
  8 30  1  0
  9 10  2  0
 13 14  1  0
 14 15  2  0
 14 19  1  0
 15 16  1  0
 15 24  1  0
 16 17  2  0
 16 25  1  0
 17 18  1  0
 17 20  1  0
 18 19  2  0
 18 26  1  0
 19 27  1  0
 28 30  1  0
 30 31  1  0
 30 32  1  0
 31 32  1  0
 31 33  1  0
 31 34  1  0
 32 35  1  0
 32 36  1  0
M  END
>  <r_exp_dg>  (6) 
-10.3953

>  <experimental dG reference units>  (6) 
kcal/mol

>  <experimental dG reference field>  (6) 
r_exp_dg

>  <kJ/mol experimental dG>  (6) 
-43.4939352

>  <kcal/mol experimental dG>  (6) 
-10.3953

>  <AmberAM1BCCCache>  (6) 
gASVBwMAAAAAAABdlCiMFm51bXB5Ll9jb3JlLm11bHRpYXJyYXmUjAZzY2FsYXKUk5SMBW51bXB5lIwFZHR5cGWUk5SMAmY4lImIh5RSlChLA4wBPJROTk5K/////0r/////SwB0lGJDCLStq1JOjgDAlIaUUpRoA2gJQwhgWU5ONQbZv5SGlFKUaANoCUMIraYcsIJjE0CUhpRSlGgDaAlDCMQtOKmijfC/lIaUUpRoA2gJQwjruDXq6yvjP5SGlFKUaANoCUMIUBak5x/DDkCUhpRSlGgDaAlDCHsNJtjl0QDAlIaUUpRoA2gJQwgK2RXbYowZwJSGlFKUaANoCUMIHRjSO66mIECUhpRSlGgDaAlDCJZxCRThoRvAlIaUUpRoA2gJQwhiXtPWVGsdwJSGlFKUaANoCUMIuzXvBvN87D+UhpRSlGgDaAlDCK/0+aWg5AXAlIaUUpRoA2gJQwhu77yFXP/wP5SGlFKUaANoCUMI325qKJE1+r+UhpRSlGgDaAlDCKIP88cMzPO/lIaUUpRoA2gJQwjRLqo6uriqP5SGlFKUaANoCUMIog/zxwzM87+UhpRSlGgDaAlDCN9uaiiRNfq/lIaUUpRoA2gJQwi30kF7wxnwv5SGlFKUaANoCUMI/7nx14obAkCUhpRSlGgDaAlDCLsGmGaBPNg/lIaUUpRoA2gJQwhrbxd2dkXeP5SGlFKUaANoCUMI2huy0iWF/T+UhpRSlGgDaAlDCKwnfK1yDP0/lIaUUpRoA2gJQwisJ3ytcgz9P5SGlFKUaANoCUMI2huy0iWF/T+UhpRSlGgDaAlDCCfqNQmRVfc/lIaUUpRoA2gJQwgypGXC/C8NQJSGlFKUaANoCUMIwHOmnWLj4z+UhpRSlGgDaAlDCOiVtJOEvPy/lIaUUpRoA2gJQwjolbSThLz8v5SGlFKUaANoCUMI+J5xO/tf7D+UhpRSlGgDaAlDCPiecTv7X+w/lIaUUpRoA2gJQwj4nnE7+1/sP5SGlFKUaANoCUMI+J5xO/tf7D+UhpRSlGUu

$$$$
19
     RDKit          3D

 30 32  0  0  1  0  0  0  0  0999 V2000
   -6.1528   12.6410  -11.9089 C   0  0  0  0  0  0  0  0  0  0  0  0
   -6.0817   12.4114  -10.5886 C   0  0  0  0  0  0  0  0  0  0  0  0
   -7.9756    9.3251  -10.9134 C   0  0  0  0  0  0  0  0  0  0  0  0
   -6.7089   11.2370  -10.1468 C   0  0  0  0  0  0  0  0  0  0  0  0
   -6.8155   10.6731   -8.8396 C   0  0  0  0  0  0  0  0  0  0  0  0
   -7.4863    9.4801   -8.6710 C   0  0  0  0  0  0  0  0  0  0  0  0
   -7.3074   10.5284  -11.1981 C   0  0  0  0  0  0  0  0  0  0  0  0
   -4.7953   14.8291  -11.8605 C   0  0  0  0  0  0  0  0  0  0  0  0
   -5.5436   13.7351  -12.6404 C   0  0  0  0  0  0  0  0  0  0  0  0
   -5.8084   13.9332  -13.8066 O   0  0  0  0  0  0  0  0  0  0  0  0
   -8.0338    8.8326   -9.6900 N   0  0  0  0  0  0  0  0  0  0  0  0
   -7.0595   11.3906  -12.7238 S   0  0  0  0  0  0  0  0  0  0  0  0
   -6.3001   11.2883   -7.7225 O   0  0  0  0  0  0  0  0  0  0  0  0
   -4.9942   11.5170   -7.4627 C   0  0  0  0  0  0  0  0  0  0  0  0
   -4.7049   12.3855   -6.4195 C   0  0  0  0  0  0  0  0  0  0  0  0
   -3.3978   12.6669   -6.0790 C   0  0  0  0  0  0  0  0  0  0  0  0
   -2.3503   12.0833   -6.7665 C   0  0  0  0  0  0  0  0  0  0  0  0
   -2.6414   11.2068   -7.8069 C   0  0  0  0  0  0  0  0  0  0  0  0
   -3.9533   10.9196   -8.1572 C   0  0  0  0  0  0  0  0  0  0  0  0
   -0.7264   12.4563   -6.3008 Cl  0  0  0  0  0  0  0  0  0  0  0  0
   -5.5664   13.1099   -9.9459 H   0  0  0  0  0  0  0  0  0  0  0  0
   -8.4602    8.7758  -11.7070 H   0  0  0  0  0  0  0  0  0  0  0  0
   -7.5776    9.0464   -7.6860 H   0  0  0  0  0  0  0  0  0  0  0  0
   -5.5067   12.8489   -5.8647 H   0  0  0  0  0  0  0  0  0  0  0  0
   -3.1859   13.3487   -5.2687 H   0  0  0  0  0  0  0  0  0  0  0  0
   -1.8402   10.7370   -8.3572 H   0  0  0  0  0  0  0  0  0  0  0  0
   -4.1663   10.2352   -8.9653 H   0  0  0  0  0  0  0  0  0  0  0  0
   -4.0940   15.4304  -12.4499 H   0  0  0  0  0  0  0  0  0  0  0  0
   -4.2608   14.5175  -10.9538 H   0  0  0  0  0  0  0  0  0  0  0  0
   -5.5983   15.5005  -11.5512 H   0  0  0  0  0  0  0  0  0  0  0  0
  1  2  2  0
  1  9  1  0
  1 12  1  0
  2  4  1  0
  2 21  1  0
  3  7  2  0
  3 11  1  0
  3 22  1  0
  4  5  2  0
  4  7  1  0
  5  6  1  0
  5 13  1  0
  6 11  2  0
  6 23  1  0
  7 12  1  0
  8  9  1  0
  8 28  1  0
  8 29  1  0
  8 30  1  0
  9 10  2  0
 13 14  1  0
 14 15  2  0
 14 19  1  0
 15 16  1  0
 15 24  1  0
 16 17  2  0
 16 25  1  0
 17 18  1  0
 17 20  1  0
 18 19  2  0
 18 26  1  0
 19 27  1  0
M  END
>  <r_exp_dg>  (7) 
-10.2248

>  <experimental dG reference units>  (7) 
kcal/mol

>  <experimental dG reference field>  (7) 
r_exp_dg

>  <kJ/mol experimental dG>  (7) 
-42.7805632

>  <kcal/mol experimental dG>  (7) 
-10.2248

>  <AmberAM1BCCCache>  (7) 
gASVlQIAAAAAAABdlCiMFm51bXB5Ll9jb3JlLm11bHRpYXJyYXmUjAZzY2FsYXKUk5SMBW51bXB5lIwFZHR5cGWUk5SMAmY4lImIh5RSlChLA4wBPJROTk5K/////0r/////SwB0lGJDCEDvXORQewPAlIaUUpRoA2gJQwgMDcwxYrnpv5SGlFKUaANoCUMIKtq+PZirE0CUhpRSlGgDaAlDCC1IG72yXvC/lIaUUpRoA2gJQwjYvJ/cb0bhP5SGlFKUaANoCUMI1o02NVCqDkCUhpRSlGgDaAlDCMJTW8GgjgPAlIaUUpRoA2gJQwgrDxgzbTUCwJSGlFKUaANoCUMIkeQTVtFxHECUhpRSlGgDaAlDCGN6OuI58hjAlIaUUpRoA2gJQwhwISmazoMdwJSGlFKUaANoCUMI5FpHI0hcAECUhpRSlGgDaAlDCLRzX6n/XQbAlIaUUpRoA2gJQwhL0FUalF7xP5SGlFKUaANoCUMIFnvBNXiX+r+UhpRSlGgDaAlDCAsq1tscnfO/lIaUUpRoA2gJQwhhEEifzYSkP5SGlFKUaANoCUMICyrW2xyd87+UhpRSlGgDaAlDCBZ7wTV4l/q/lIaUUpRoA2gJQwhl6KA3Gxvwv5SGlFKUaANoCUMIcF7qZBI4AECUhpRSlGgDaAlDCBidCxdB+Ng/lIaUUpRoA2gJQwidK6vi+H7dP5SGlFKUaANoCUMIiQgVQqpr/T+UhpRSlGgDaAlDCP4RHfEaC/0/lIaUUpRoA2gJQwj+ER3xGgv9P5SGlFKUaANoCUMIiQgVQqpr/T+UhpRSlGgDaAlDCHRoIayAyek/lIaUUpRoA2gJQwh0aCGsgMnpP5SGlFKUaANoCUMIdGghrIDJ6T+UhpRSlGUu

$$$$
20
     RDKit          3D

 33 35  0  0  1  0  0  0  0  0999 V2000
   -6.1528   12.6410  -11.9089 C   0  0  0  0  0  0  0  0  0  0  0  0
   -6.0817   12.4114  -10.5886 C   0  0  0  0  0  0  0  0  0  0  0  0
   -7.9756    9.3251  -10.9134 C   0  0  0  0  0  0  0  0  0  0  0  0
   -6.7089   11.2370  -10.1468 C   0  0  0  0  0  0  0  0  0  0  0  0
   -6.8155   10.6731   -8.8396 C   0  0  0  0  0  0  0  0  0  0  0  0
   -7.4863    9.4801   -8.6710 C   0  0  0  0  0  0  0  0  0  0  0  0
   -7.3074   10.5284  -11.1981 C   0  0  0  0  0  0  0  0  0  0  0  0
   -4.7953   14.8291  -11.8605 C   0  0  0  0  0  0  0  0  0  0  0  0
   -5.5436   13.7351  -12.6404 C   0  0  0  0  0  0  0  0  0  0  0  0
   -5.8084   13.9332  -13.8066 O   0  0  0  0  0  0  0  0  0  0  0  0
   -8.0338    8.8326   -9.6900 N   0  0  0  0  0  0  0  0  0  0  0  0
   -7.0595   11.3906  -12.7238 S   0  0  0  0  0  0  0  0  0  0  0  0
   -6.3001   11.2883   -7.7225 O   0  0  0  0  0  0  0  0  0  0  0  0
   -4.9942   11.5170   -7.4627 C   0  0  0  0  0  0  0  0  0  0  0  0
   -4.7049   12.3855   -6.4195 C   0  0  0  0  0  0  0  0  0  0  0  0
   -3.3978   12.6669   -6.0790 C   0  0  0  0  0  0  0  0  0  0  0  0
   -2.3503   12.0833   -6.7665 C   0  0  0  0  0  0  0  0  0  0  0  0
   -2.6414   11.2068   -7.8069 C   0  0  0  0  0  0  0  0  0  0  0  0
   -3.9533   10.9196   -8.1572 C   0  0  0  0  0  0  0  0  0  0  0  0
   -0.7264   12.4563   -6.3008 Cl  0  0  0  0  0  0  0  0  0  0  0  0
   -5.5664   13.1099   -9.9459 H   0  0  0  0  0  0  0  0  0  0  0  0
   -8.4602    8.7758  -11.7070 H   0  0  0  0  0  0  0  0  0  0  0  0
   -7.5776    9.0464   -7.6860 H   0  0  0  0  0  0  0  0  0  0  0  0
   -5.5067   12.8489   -5.8647 H   0  0  0  0  0  0  0  0  0  0  0  0
   -3.1859   13.3487   -5.2687 H   0  0  0  0  0  0  0  0  0  0  0  0
   -1.8402   10.7370   -8.3572 H   0  0  0  0  0  0  0  0  0  0  0  0
   -4.1663   10.2352   -8.9653 H   0  0  0  0  0  0  0  0  0  0  0  0
   -3.8097   15.6741  -12.6889 C   0  0  0  0  0  0  0  0  0  0  0  0
   -4.2608   14.5175  -10.9538 H   0  0  0  0  0  0  0  0  0  0  0  0
   -5.5983   15.5005  -11.5512 H   0  0  0  0  0  0  0  0  0  0  0  0
   -3.3357   16.4152  -12.0453 H   0  0  0  0  0  0  0  0  0  0  0  0
   -3.0464   15.0255  -13.1188 H   0  0  0  0  0  0  0  0  0  0  0  0
   -4.3485   16.1806  -13.4897 H   0  0  0  0  0  0  0  0  0  0  0  0
  1  2  2  0
  1  9  1  0
  1 12  1  0
  2  4  1  0
  2 21  1  0
  3  7  2  0
  3 11  1  0
  3 22  1  0
  4  5  2  0
  4  7  1  0
  5  6  1  0
  5 13  1  0
  6 11  2  0
  6 23  1  0
  7 12  1  0
  8  9  1  0
  8 28  1  0
  8 29  1  0
  8 30  1  0
  9 10  2  0
 13 14  1  0
 14 15  2  0
 14 19  1  0
 15 16  1  0
 15 24  1  0
 16 17  2  0
 16 25  1  0
 17 18  1  0
 17 20  1  0
 18 19  2  0
 18 26  1  0
 19 27  1  0
 28 31  1  0
 28 32  1  0
 28 33  1  0
M  END
>  <r_exp_dg>  (8) 
-10.2831

>  <experimental dG reference units>  (8) 
kcal/mol

>  <experimental dG reference field>  (8) 
r_exp_dg

>  <kJ/mol experimental dG>  (8) 
-43.0244904

>  <kcal/mol experimental dG>  (8) 
-10.2831

>  <AmberAM1BCCCache>  (8) 
gASVzgIAAAAAAABdlCiMFm51bXB5Ll9jb3JlLm11bHRpYXJyYXmUjAZzY2FsYXKUk5SMBW51bXB5lIwFZHR5cGWUk5SMAmY4lImIh5RSlChLA4wBPJROTk5K/////0r/////SwB0lGJDCD3w7EXiAQPAlIaUUpRoA2gJQwgr6+v75FXpv5SGlFKUaANoCUMIlN9b+vWrE0CUhpRSlGgDaAlDCMctI3ODjfC/lIaUUpRoA2gJQwgu6IfBXUnhP5SGlFKUaANoCUMIq5hwrgurDkCUhpRSlGgDaAlDCO1IIUjljQPAlIaUUpRoA2gJQwgKnmlv2ygAwJSGlFKUaANoCUMI++mwEi9yHECUhpRSlGgDaAlDCPh0nSXc8RjAlIaUUpRoA2gJQwgFHIzdcIMdwJSGlFKUaANoCUMIX94Sl+j4/z+UhpRSlGgDaAlDCN5oJTBEXQbAlIaUUpRoA2gJQwj25ckMC2DxP5SGlFKUaANoCUMIa2VNQwGW+r+UhpRSlGgDaAlDCGAUYumlm/O/lIaUUpRoA2gJQwi+xcrtq7OkP5SGlFKUaANoCUMIYBRi6aWb87+UhpRSlGgDaAlDCGtlTUMBlvq/lIaUUpRoA2gJQwi60ixFpBnwv5SGlFKUaANoCUMI6GZisvFQAECUhpRSlGgDaAlDCMTz2+Ac/tg/lIaUUpRoA2gJQwhJgnus1ITdP5SGlFKUaANoCUMINB6JNCFt/T+UhpRSlGgDaAlDCKknkeORDP0/lIaUUpRoA2gJQwipJ5HjkQz9P5SGlFKUaANoCUMINB6JNCFt/T+UhpRSlGgDaAlDCLTv2amO/PC/lIaUUpRoA2gJQwgk4dNwTrzpP5SGlFKUaANoCUMIJOHTcE686T+UhpRSlGgDaAlDCGG/EIIm3+A/lIaUUpRoA2gJQwhhvxCCJt/gP5SGlFKUaANoCUMIYb8Qgibf4D+UhpRSlGUu

$$$$
21
     RDKit          3D

 34 37  0  0  1  0  0  0  0  0999 V2000
   -6.1528   12.6410  -11.9089 C   0  0  0  0  0  0  0  0  0  0  0  0
   -6.0817   12.4114  -10.5886 C   0  0  0  0  0  0  0  0  0  0  0  0
   -7.9756    9.3251  -10.9134 C   0  0  0  0  0  0  0  0  0  0  0  0
   -6.7089   11.2370  -10.1468 C   0  0  0  0  0  0  0  0  0  0  0  0
   -6.8155   10.6731   -8.8396 C   0  0  0  0  0  0  0  0  0  0  0  0
   -7.4863    9.4801   -8.6710 C   0  0  0  0  0  0  0  0  0  0  0  0
   -7.3074   10.5284  -11.1981 C   0  0  0  0  0  0  0  0  0  0  0  0
   -5.5436   13.7351  -12.6404 C   0  0  0  0  0  0  0  0  0  0  0  0
   -5.8084   13.9332  -13.8066 O   0  0  0  0  0  0  0  0  0  0  0  0
   -8.0338    8.8326   -9.6900 N   0  0  0  0  0  0  0  0  0  0  0  0
   -7.0595   11.3906  -12.7238 S   0  0  0  0  0  0  0  0  0  0  0  0
   -6.3001   11.2883   -7.7225 O   0  0  0  0  0  0  0  0  0  0  0  0
   -4.9942   11.5170   -7.4627 C   0  0  0  0  0  0  0  0  0  0  0  0
   -4.7049   12.3855   -6.4195 C   0  0  0  0  0  0  0  0  0  0  0  0
   -3.3978   12.6669   -6.0790 C   0  0  0  0  0  0  0  0  0  0  0  0
   -2.3503   12.0833   -6.7665 C   0  0  0  0  0  0  0  0  0  0  0  0
   -2.6414   11.2068   -7.8069 C   0  0  0  0  0  0  0  0  0  0  0  0
   -3.9533   10.9196   -8.1572 C   0  0  0  0  0  0  0  0  0  0  0  0
   -0.7264   12.4563   -6.3008 Cl  0  0  0  0  0  0  0  0  0  0  0  0
   -5.5664   13.1099   -9.9459 H   0  0  0  0  0  0  0  0  0  0  0  0
   -8.4602    8.7758  -11.7070 H   0  0  0  0  0  0  0  0  0  0  0  0
   -7.5776    9.0464   -7.6860 H   0  0  0  0  0  0  0  0  0  0  0  0
   -5.5067   12.8489   -5.8647 H   0  0  0  0  0  0  0  0  0  0  0  0
   -3.1859   13.3487   -5.2687 H   0  0  0  0  0  0  0  0  0  0  0  0
   -1.8402   10.7370   -8.3572 H   0  0  0  0  0  0  0  0  0  0  0  0
   -4.1663   10.2352   -8.9653 H   0  0  0  0  0  0  0  0  0  0  0  0
   -5.1293   15.8493  -12.0320 H   0  0  0  0  0  0  0  0  0  0  0  0
   -4.7979   14.8198  -11.8804 C   0  0  0  0  0  0  0  0  0  0  0  0
   -4.2896   14.4552  -10.5104 C   0  0  0  0  0  0  0  0  0  0  0  0
   -3.3251   14.5967  -11.6584 C   0  0  0  0  0  0  0  0  0  0  0  0
   -4.2781   15.2791   -9.7587 H   0  0  0  0  0  0  0  0  0  0  0  0
   -4.4983   13.4127  -10.1735 H   0  0  0  0  0  0  0  0  0  0  0  0
   -2.6882   15.5123  -11.6512 H   0  0  0  0  0  0  0  0  0  0  0  0
   -2.9083   13.6459  -12.0661 H   0  0  0  0  0  0  0  0  0  0  0  0
  1  2  2  0
  1  8  1  0
  1 11  1  0
  2  4  1  0
  2 20  1  0
  3  7  2  0
  3 10  1  0
  3 21  1  0
  4  5  2  0
  4  7  1  0
  5  6  1  0
  5 12  1  0
  6 10  2  0
  6 22  1  0
  7 11  1  0
  8  9  2  0
  8 28  1  0
 12 13  1  0
 13 14  2  0
 13 18  1  0
 14 15  1  0
 14 23  1  0
 15 16  2  0
 15 24  1  0
 16 17  1  0
 16 19  1  0
 17 18  2  0
 17 25  1  0
 18 26  1  0
 27 28  1  0
 28 29  1  0
 28 30  1  0
 29 30  1  0
 29 31  1  0
 29 32  1  0
 30 33  1  0
 30 34  1  0
M  END
>  <r_exp_dg>  (9) 
-9.86234

>  <experimental dG reference units>  (9) 
kcal/mol

>  <experimental dG reference field>  (9) 
r_exp_dg

>  <kJ/mol experimental dG>  (9) 
-41.26403056

>  <kcal/mol experimental dG>  (9) 
-9.86234

>  <AmberAM1BCCCache>  (9) 
gASV4QIAAAAAAABdlCiMFm51bXB5Ll9jb3JlLm11bHRpYXJyYXmUjAZzY2FsYXKUk5SMBW51bXB5lIwFZHR5cGWUk5SMAmY4lImIh5RSlChLA4wBPJROTk5K/////0r/////SwB0lGJDCKjdo6wLjALAlIaUUpRoA2gJQwh/LTG7+F/bv5SGlFKUaANoCUMI33WrNxxiE0CUhpRSlGgDaAlDCIbn9NvL8/C/lIaUUpRoA2gJQwh9MqwmuCDjP5SGlFKUaANoCUMIbrlFTguQDkCUhpRSlGgDaAlDCNBZNj/1rQHAlIaUUpRoA2gJQwi4VVw82todQJSGlFKUaANoCUMIUek2rRTPGMCUhpRSlGgDaAlDCAGOYznNeB3AlIaUUpRoA2gJQwhwYc4V3+/yP5SGlFKUaANoCUMISlbclm3nBcCUhpRSlGgDaAlDCHwndEwKKvE/lIaUUpRoA2gJQwi4L23eTlP6v5SGlFKUaANoCUMIN9V51YK587+UhpRSlGgDaAlDCPLHEQJ+Bao/lIaUUpRoA2gJQwg31XnVgrnzv5SGlFKUaANoCUMIuC9t3k5T+r+UhpRSlGgDaAlDCDSRggWlT/C/lIaUUpRoA2gJQwjYYReWLrgBQJSGlFKUaANoCUMIyQyVPftk1z+UhpRSlGgDaAlDCHp1FE3wbd0/lIaUUpRoA2gJQwikWO3wi3/9P5SGlFKUaANoCUMIdmS3y9gG/T+UhpRSlGgDaAlDCHZkt8vYBv0/lIaUUpRoA2gJQwikWO3wi3/9P5SGlFKUaANoCUMIb8x9Hiu28D+UhpRSlGgDaAlDCHYjEepv7gfAlIaUUpRoA2gJQwjTWhQX3Xryv5SGlFKUaANoCUMI01oUF9168r+UhpRSlGgDaAlDCGzDn1DRue8/lIaUUpRoA2gJQwhsw59Q0bnvP5SGlFKUaANoCUMIbMOfUNG57z+UhpRSlGgDaAlDCGzDn1DRue8/lIaUUpRlLg==

$$$$
22
     RDKit          3D

 32 34  0  0  1  0  0  0  0  0999 V2000
   -6.1528   12.6410  -11.9088 C   0  0  0  0  0  0  0  0  0  0  0  0
   -6.0817   12.4114  -10.5887 C   0  0  0  0  0  0  0  0  0  0  0  0
   -7.9756    9.3251  -10.9134 C   0  0  0  0  0  0  0  0  0  0  0  0
   -6.7089   11.2368  -10.1462 C   0  0  0  0  0  0  0  0  0  0  0  0
   -6.8155   10.6731   -8.8396 C   0  0  0  0  0  0  0  0  0  0  0  0
   -7.4863    9.4801   -8.6710 C   0  0  0  0  0  0  0  0  0  0  0  0
   -7.3075   10.5284  -11.1981 C   0  0  0  0  0  0  0  0  0  0  0  0
   -4.7302   14.6175  -11.9895 N   0  0  0  0  0  0  0  0  0  0  0  0
   -5.5682   13.7780  -12.6231 C   0  0  0  0  0  0  0  0  0  0  0  0
   -4.1549   15.7326  -12.7427 C   0  0  0  0  0  0  0  0  0  0  0  0
   -5.8085   13.9332  -13.8064 O   0  0  0  0  0  0  0  0  0  0  0  0
   -8.0338    8.8326   -9.6900 N   0  0  0  0  0  0  0  0  0  0  0  0
   -7.0595   11.3907  -12.7239 S   0  0  0  0  0  0  0  0  0  0  0  0
   -6.3055   11.2854   -7.7404 O   0  0  0  0  0  0  0  0  0  0  0  0
   -4.9940   11.5171   -7.4628 C   0  0  0  0  0  0  0  0  0  0  0  0
   -4.7046   12.3853   -6.4198 C   0  0  0  0  0  0  0  0  0  0  0  0
   -3.3978   12.6669   -6.0790 C   0  0  0  0  0  0  0  0  0  0  0  0
   -2.3503   12.0833   -6.7665 C   0  0  0  0  0  0  0  0  0  0  0  0
   -2.6416   11.2071   -7.8066 C   0  0  0  0  0  0  0  0  0  0  0  0
   -3.9535   10.9195   -8.1573 C   0  0  0  0  0  0  0  0  0  0  0  0
   -0.3662   12.5391   -6.1975 I   0  0  0  0  0  0  0  0  0  0  0  0
   -5.5664   13.1099   -9.9461 H   0  0  0  0  0  0  0  0  0  0  0  0
   -8.4602    8.7758  -11.7070 H   0  0  0  0  0  0  0  0  0  0  0  0
   -7.5776    9.0464   -7.6860 H   0  0  0  0  0  0  0  0  0  0  0  0
   -4.5104   14.4713  -11.0146 H   0  0  0  0  0  0  0  0  0  0  0  0
   -3.5028   16.3140  -12.0909 H   0  0  0  0  0  0  0  0  0  0  0  0
   -3.5771   15.3452  -13.5819 H   0  0  0  0  0  0  0  0  0  0  0  0
   -4.9556   16.3704  -13.1172 H   0  0  0  0  0  0  0  0  0  0  0  0
   -5.5067   12.8489   -5.8647 H   0  0  0  0  0  0  0  0  0  0  0  0
   -3.1859   13.3487   -5.2687 H   0  0  0  0  0  0  0  0  0  0  0  0
   -1.8402   10.7370   -8.3572 H   0  0  0  0  0  0  0  0  0  0  0  0
   -4.1663   10.2352   -8.9653 H   0  0  0  0  0  0  0  0  0  0  0  0
  1  2  2  0
  1  9  1  0
  1 13  1  0
  2  4  1  0
  2 22  1  0
  3  7  2  0
  3 12  1  0
  3 23  1  0
  4  5  2  0
  4  7  1  0
  5  6  1  0
  5 14  1  0
  6 12  2  0
  6 24  1  0
  7 13  1  0
  8  9  1  0
  8 10  1  0
  8 25  1  0
  9 11  2  0
 10 26  1  0
 10 27  1  0
 10 28  1  0
 14 15  1  0
 15 16  2  0
 15 20  1  0
 16 17  1  0
 16 29  1  0
 17 18  2  0
 17 30  1  0
 18 19  1  0
 18 21  1  0
 19 20  2  0
 19 31  1  0
 20 32  1  0
M  END
>  <r_exp_dg>  (10) 
-11.2901

>  <experimental dG reference units>  (10) 
kcal/mol

>  <experimental dG reference field>  (10) 
r_exp_dg

>  <kJ/mol experimental dG>  (10) 
-47.2377784

>  <kcal/mol experimental dG>  (10) 
-11.2901

>  <AmberAM1BCCCache>  (10) 
gASVuwIAAAAAAABdlCiMFm51bXB5Ll9jb3JlLm11bHRpYXJyYXmUjAZzY2FsYXKUk5SMBW51bXB5lIwFZHR5cGWUk5SMAmY4lImIh5RSlChLA4wBPJROTk5K/////0r/////SwB0lGJDCG7almxPRwDAlIaUUpRoA2gJQwi6TUfp9VTbv5SGlFKUaANoCUMI8g1l9yWfE0CUhpRSlGgDaAlDCOkXJWm6nu+/lIaUUpRoA2gJQwipUcn6bEPhP5SGlFKUaANoCUMIIOCwHq5qD0CUhpRSlGgDaAlDCKkpw7/hMwHAlIaUUpRoA2gJQwg1RymARAMbwJSGlFKUaANoCUMIBlSdeAJwIECUhpRSlGgDaAlDCEweRMKehe0/lIaUUpRoA2gJQwjbALkdzcYbwJSGlFKUaANoCUMIp+2C4ECQHcCUhpRSlGgDaAlDCLmVUv3P1+w/lIaUUpRoA2gJQwhSGp88DeYFwJSGlFKUaANoCUMIqzISJDuD9T+UhpRSlGgDaAlDCExg6Na7zf2/lIaUUpRoA2gJQwhy5HvL4Yvrv5SGlFKUaANoCUMIuBGhCRpZpz+UhpRSlGgDaAlDCHLke8vhi+u/lIaUUpRoA2gJQwhMYOjWu839v5SGlFKUaANoCUMIpzgJFDBC+b+UhpRSlGgDaAlDCFyUTEEeGgJAlIaUUpRoA2gJQwij2W6xHDHYP5SGlFKUaANoCUMIUULuwBE63j+UhpRSlGgDaAlDCOyAgldsFg1AlIaUUpRoA2gJQwiTXojle7rhP5SGlFKUaANoCUMIk16I5Xu64T+UhpRSlGgDaAlDCJNeiOV7uuE/lIaUUpRoA2gJQwjy0inRKGr9P5SGlFKUaANoCUMIluq9hsJ4/D+UhpRSlGgDaAlDCJbqvYbCePw/lIaUUpRoA2gJQwjy0inRKGr9P5SGlFKUZS4=

$$$$
