18a
     RDKit          3D

 53 56  0  0  1  0  0  0  0  0999 V2000
   10.8011   -9.2877    0.2796 C   0  0  0  0  0  0  0  0  0  0  0  0
   11.9594   -9.0271   -0.4571 C   0  0  0  0  0  0  0  0  0  0  0  0
   10.8214   -9.1701    1.6720 C   0  0  0  0  0  0  0  0  0  0  0  0
   11.9975   -8.7929    2.3259 C   0  0  0  0  0  0  0  0  0  0  0  0
   13.1528   -8.5335    1.5842 C   0  0  0  0  0  0  0  0  0  0  0  0
   13.1326   -8.6508    0.1952 C   0  0  0  0  0  0  0  0  0  0  0  0
   14.3746   -8.3717   -0.5984 C   0  0  0  0  0  0  0  0  0  0  0  0
   14.3469   -8.0117   -1.8695 N   0  0  0  0  0  0  0  0  0  0  0  0
   15.6495   -7.8341   -2.2967 N   0  0  0  0  0  0  0  0  0  0  0  0
   15.6852   -8.4424   -0.1508 C   0  0  0  0  0  0  0  0  0  0  0  0
   16.4360   -8.0988   -1.2459 N   0  0  0  0  0  0  0  0  0  0  0  0
   17.8723   -7.9717   -1.4752 C   0  0  2  0  0  0  0  0  0  0  0  0
   18.6128   -9.2294   -0.9901 C   0  0  1  0  0  0  0  0  0  0  0  0
   18.2247  -10.3300   -1.7266 O   0  0  0  0  0  0  0  0  0  0  0  0
   18.4278   -6.7273   -0.7622 C   0  0  1  0  0  0  0  0  0  0  0  0
   18.0594   -6.7515    0.5675 O   0  0  0  0  0  0  0  0  0  0  0  0
   19.9644   -6.6641   -0.8562 C   0  0  1  0  0  0  0  0  0  0  0  0
   20.4848   -5.5093   -0.0527 C   0  0  0  0  0  0  0  0  0  0  0  0
   21.8221   -5.3181   -0.3349 O   0  0  0  0  0  0  0  0  0  0  0  0
   20.5330   -7.8771   -0.3539 O   0  0  0  0  0  0  0  0  0  0  0  0
   20.1408   -9.0499   -1.0735 C   0  0  1  0  0  0  0  0  0  0  0  0
   20.9643  -10.4642   -0.3736 S   0  0  0  0  0  0  0  0  0  0  0  0
   22.6578  -10.0777   -0.7625 C   0  0  0  0  0  0  0  0  0  0  0  0
   23.4416   -9.3885    0.1552 C   0  0  0  0  0  0  0  0  0  0  0  0
   24.7639   -9.0867   -0.1485 C   0  0  0  0  0  0  0  0  0  0  0  0
   25.3023   -9.4741   -1.3698 C   0  0  0  0  0  0  0  0  0  0  0  0
   24.5184  -10.1634   -2.2875 C   0  0  0  0  0  0  0  0  0  0  0  0
   23.1962  -10.4652   -1.9838 C   0  0  0  0  0  0  0  0  0  0  0  0
   16.1370   -8.6931    0.7999 H   0  0  0  0  0  0  0  0  0  0  0  0
   18.0004   -7.8640   -2.5546 H   0  0  0  0  0  0  0  0  0  0  0  0
   18.3359   -9.4423    0.0438 H   0  0  0  0  0  0  0  0  0  0  0  0
   18.4193  -10.2732   -2.7059 H   0  0  0  0  0  0  0  0  0  0  0  0
   17.9896   -5.8210   -1.1827 H   0  0  0  0  0  0  0  0  0  0  0  0
   17.4974   -5.9795    0.8644 H   0  0  0  0  0  0  0  0  0  0  0  0
   20.2855   -6.4938   -1.8862 H   0  0  0  0  0  0  0  0  0  0  0  0
   19.9271   -4.6083   -0.3081 H   0  0  0  0  0  0  0  0  0  0  0  0
   20.3645   -5.7222    1.0095 H   0  0  0  0  0  0  0  0  0  0  0  0
   22.2085   -5.9552   -1.0018 H   0  0  0  0  0  0  0  0  0  0  0  0
   20.4696   -8.9836   -2.1130 H   0  0  0  0  0  0  0  0  0  0  0  0
   23.0225   -9.0868    1.1060 H   0  0  0  0  0  0  0  0  0  0  0  0
   25.3742   -8.5500    0.5660 H   0  0  0  0  0  0  0  0  0  0  0  0
   24.9376  -10.4650   -3.2384 H   0  0  0  0  0  0  0  0  0  0  0  0
   22.5859  -11.0018   -2.6983 H   0  0  0  0  0  0  0  0  0  0  0  0
    9.6618   -9.6533   -0.3554 F   0  0  0  0  0  0  0  0  0  0  0  0
   11.9502   -9.1381   -1.8052 F   0  0  0  0  0  0  0  0  0  0  0  0
   12.0184   -8.6786    3.6755 F   0  0  0  0  0  0  0  0  0  0  0  0
   14.2963   -8.1677    2.2076 F   0  0  0  0  0  0  0  0  0  0  0  0
   26.7293   -9.1484   -1.6975 C   0  0  0  0  0  0  0  0  0  0  0  0
   26.9702   -9.5291   -2.6901 H   0  0  0  0  0  0  0  0  0  0  0  0
   27.3861   -9.6119   -0.9613 H   0  0  0  0  0  0  0  0  0  0  0  0
   26.8687   -8.0675   -1.6793 H   0  0  0  0  0  0  0  0  0  0  0  0
    9.6921   -9.4239    2.3936 O   0  0  0  0  0  0  0  0  0  0  0  0
    9.8738   -9.2986    3.3279 H   0  0  0  0  0  0  0  0  0  0  0  0
  1  2  2  0
  1  3  1  0
  1 44  1  0
  2  6  1  0
  2 45  1  0
  3  4  2  0
  3 52  1  0
  4  5  1  0
  4 46  1  0
  5  6  2  0
  5 47  1  0
  6  7  1  0
  7  8  1  0
  7 10  2  0
  8  9  2  0
  9 11  1  0
 10 11  1  0
 10 29  1  0
 11 12  1  0
 12 13  1  0
 12 15  1  0
 12 30  1  6
 13 14  1  0
 13 21  1  0
 13 31  1  1
 14 32  1  0
 15 16  1  0
 15 17  1  0
 15 33  1  6
 16 34  1  0
 17 18  1  0
 17 20  1  0
 17 35  1  6
 18 19  1  0
 18 36  1  0
 18 37  1  0
 19 38  1  0
 20 21  1  0
 21 22  1  0
 21 39  1  6
 22 23  1  0
 23 24  2  0
 23 28  1  0
 24 25  1  0
 24 40  1  0
 25 26  2  0
 25 41  1  0
 26 27  1  0
 26 48  1  0
 27 28  2  0
 27 42  1  0
 28 43  1  0
 48 49  1  0
 48 50  1  0
 48 51  1  0
 52 53  1  0
M  END
>  <i_m_Source_File_Index>  (1) 
1

>  <b_m_subgroup_collapsed>  (1) 
0

>  <r_exp_dg>  (1) 
-6.32775

>  <s_m_Source_File>  (1) 
galectin3_extra_ligands.sdf

>  <s_m_Source_Path>  (1) 
/efs/home/chaya/odyssey/projects/openfe-benchmark/Galectin

>  <s_m_entry_id>  (1) 
7

>  <s_m_entry_name>  (1) 
galectin3_extra_ligands.1

>  <s_m_subgroup_title>  (1) 
galectin3_extra_ligands

>  <s_m_subgroupid>  (1) 
galectin3_extra_ligands

>  <experimental dG reference units>  (1) 
kcal/mol

>  <experimental dG reference field>  (1) 
r_exp_dg

>  <kJ/mol experimental dG>  (1) 
-26.475306

>  <kcal/mol experimental dG>  (1) 
-6.32775

>  <AmberAM1BCCCache>  (1) 
gASVSgQAAAAAAABdlCiMFm51bXB5Ll9jb3JlLm11bHRpYXJyYXmUjAZzY2FsYXKUk5SMBW51bXB5lIwFZHR5cGWUk5SMAmY4lImIh5RSlChLA4wBPJROTk5K/////0r/////SwB0lGJDCGF2tiRfoNs/lIaUUpRoA2gJQwhbWoHoYQL+P5SGlFKUaANoCUMIH3NkgWTa9D+UhpRSlGgDaAlDCGF2tiRfoNs/lIaUUpRoA2gJQwhbWoHoYQL+P5SGlFKUaANoCUMI81qIvxIb/L+UhpRSlGgDaAlDCNpHYqxlMQpAlIaUUpRoA2gJQwiOm+5QVBUOwJSGlFKUaANoCUMI2848Urym/7+UhpRSlGgDaAlDCBHAG/T6Mv6/lIaUUpRoA2gJQwh/bWyzXATmP5SGlFKUaANoCUMI9pP44OGH3j+UhpRSlGgDaAlDCAVSyBxaLPY/lIaUUpRoA2gJQwhmN59Uxi8cwJSGlFKUaANoCUMIwFZMdBL89T+UhpRSlGgDaAlDCP7R5UAzIBvAlIaUUpRoA2gJQwiUfGww1Xn0P5SGlFKUaANoCUMI19iMDeX2+D+UhpRSlGgDaAlDCM2pA1mUuhzAlIaUUpRoA2gJQwjy3v7+6HASwJSGlFKUaANoCUMIAy5nZ2C8/T+UhpRSlGgDaAlDCEwPSEeNH/+/lIaUUpRoA2gJQwgLFgF4FtPRv5SGlFKUaANoCUMI6hZIVvKb9L+UhpRSlGgDaAlDCIjTLnfvS/e/lIaUUpRoA2gJQwhsT50DfZXpv5SGlFKUaANoCUMIiNMud+9L97+UhpRSlGgDaAlDCOoWSFbym/S/lIaUUpRoA2gJQwiTgEktx9gDQJSGlFKUaANoCUMIYA4ZuOLv7z+UhpRSlGgDaAlDCOlxOtIz0fA/lIaUUpRoA2gJQwhaQNsViiEUQJSGlFKUaANoCUMI/14qdFKS8T+UhpRSlGgDaAlDCHJHIZke2RNAlIaUUpRoA2gJQwjgsyWvFlbpP5SGlFKUaANoCUMIdCzMZvOG5D+UhpRSlGgDaAlDCHQszGbzhuQ/lIaUUpRoA2gJQwit0vpodGYTQJSGlFKUaANoCUMIY0LFes7c7T+UhpRSlGgDaAlDCFFA4m2p9vo/lIaUUpRoA2gJQwg9YJ28xbD5P5SGlFKUaANoCUMIPWCdvMWw+T+UhpRSlGgDaAlDCFFA4m2p9vo/lIaUUpRoA2gJQwiab3xY9Sf1v5SGlFKUaANoCUMInZZ9KqaZ87+UhpRSlGgDaAlDCJpvfFj1J/W/lIaUUpRoA2gJQwidln0qppnzv5SGlFKUaANoCUMIc7f1iFRv5b+UhpRSlGgDaAlDCFWV6R/42uE/lIaUUpRoA2gJQwhVlekf+NrhP5SGlFKUaANoCUMIVZXpH/ja4T+UhpRSlGgDaAlDCKaI1cEE4hXAlIaUUpRoA2gJQwjNL43jhMoUQJSGlFKUZS4=

$$$$
18b
     RDKit          3D

 52 55  0  0  1  0  0  0  0  0999 V2000
   10.8011   -9.2877    0.2796 C   0  0  0  0  0  0  0  0  0  0  0  0
   11.9594   -9.0271   -0.4571 C   0  0  0  0  0  0  0  0  0  0  0  0
   10.8214   -9.1701    1.6720 C   0  0  0  0  0  0  0  0  0  0  0  0
   11.9975   -8.7929    2.3259 C   0  0  0  0  0  0  0  0  0  0  0  0
   13.1528   -8.5335    1.5842 C   0  0  0  0  0  0  0  0  0  0  0  0
   13.1326   -8.6508    0.1952 C   0  0  0  0  0  0  0  0  0  0  0  0
   14.3746   -8.3717   -0.5984 C   0  0  0  0  0  0  0  0  0  0  0  0
   14.3469   -8.0117   -1.8695 N   0  0  0  0  0  0  0  0  0  0  0  0
   15.6495   -7.8341   -2.2967 N   0  0  0  0  0  0  0  0  0  0  0  0
   15.6852   -8.4424   -0.1508 C   0  0  0  0  0  0  0  0  0  0  0  0
   16.4360   -8.0988   -1.2459 N   0  0  0  0  0  0  0  0  0  0  0  0
   17.8723   -7.9717   -1.4752 C   0  0  2  0  0  0  0  0  0  0  0  0
   18.6128   -9.2294   -0.9901 C   0  0  1  0  0  0  0  0  0  0  0  0
   18.2247  -10.3300   -1.7266 O   0  0  0  0  0  0  0  0  0  0  0  0
   18.4278   -6.7273   -0.7622 C   0  0  1  0  0  0  0  0  0  0  0  0
   18.0594   -6.7515    0.5675 O   0  0  0  0  0  0  0  0  0  0  0  0
   19.9644   -6.6641   -0.8562 C   0  0  1  0  0  0  0  0  0  0  0  0
   20.4848   -5.5093   -0.0527 C   0  0  0  0  0  0  0  0  0  0  0  0
   21.8221   -5.3181   -0.3349 O   0  0  0  0  0  0  0  0  0  0  0  0
   20.5330   -7.8771   -0.3539 O   0  0  0  0  0  0  0  0  0  0  0  0
   20.1408   -9.0499   -1.0735 C   0  0  1  0  0  0  0  0  0  0  0  0
   20.9643  -10.4642   -0.3736 S   0  0  0  0  0  0  0  0  0  0  0  0
   22.6578  -10.0777   -0.7625 C   0  0  0  0  0  0  0  0  0  0  0  0
   23.4416   -9.3885    0.1552 C   0  0  0  0  0  0  0  0  0  0  0  0
   24.7639   -9.0867   -0.1485 C   0  0  0  0  0  0  0  0  0  0  0  0
   25.3023   -9.4741   -1.3698 C   0  0  0  0  0  0  0  0  0  0  0  0
   24.5184  -10.1634   -2.2875 C   0  0  0  0  0  0  0  0  0  0  0  0
   23.1962  -10.4652   -1.9838 C   0  0  0  0  0  0  0  0  0  0  0  0
   16.1370   -8.6931    0.7999 H   0  0  0  0  0  0  0  0  0  0  0  0
   18.0004   -7.8640   -2.5546 H   0  0  0  0  0  0  0  0  0  0  0  0
   18.3359   -9.4423    0.0438 H   0  0  0  0  0  0  0  0  0  0  0  0
   18.4193  -10.2732   -2.7059 H   0  0  0  0  0  0  0  0  0  0  0  0
   17.9896   -5.8210   -1.1827 H   0  0  0  0  0  0  0  0  0  0  0  0
   17.4974   -5.9795    0.8644 H   0  0  0  0  0  0  0  0  0  0  0  0
   20.2855   -6.4938   -1.8862 H   0  0  0  0  0  0  0  0  0  0  0  0
   19.9271   -4.6083   -0.3081 H   0  0  0  0  0  0  0  0  0  0  0  0
   20.3645   -5.7222    1.0095 H   0  0  0  0  0  0  0  0  0  0  0  0
   22.2085   -5.9552   -1.0018 H   0  0  0  0  0  0  0  0  0  0  0  0
   20.4696   -8.9836   -2.1130 H   0  0  0  0  0  0  0  0  0  0  0  0
   23.0225   -9.0868    1.1060 H   0  0  0  0  0  0  0  0  0  0  0  0
   25.3742   -8.5500    0.5660 H   0  0  0  0  0  0  0  0  0  0  0  0
   24.9376  -10.4650   -3.2384 H   0  0  0  0  0  0  0  0  0  0  0  0
   22.5859  -11.0018   -2.6983 H   0  0  0  0  0  0  0  0  0  0  0  0
    9.6618   -9.6533   -0.3554 F   0  0  0  0  0  0  0  0  0  0  0  0
   11.9502   -9.1381   -1.8052 F   0  0  0  0  0  0  0  0  0  0  0  0
   12.0184   -8.6786    3.6755 F   0  0  0  0  0  0  0  0  0  0  0  0
   14.2963   -8.1677    2.2076 F   0  0  0  0  0  0  0  0  0  0  0  0
   26.7293   -9.1484   -1.6975 C   0  0  0  0  0  0  0  0  0  0  0  0
   26.9702   -9.5291   -2.6901 H   0  0  0  0  0  0  0  0  0  0  0  0
   27.3861   -9.6119   -0.9613 H   0  0  0  0  0  0  0  0  0  0  0  0
   26.8687   -8.0675   -1.6793 H   0  0  0  0  0  0  0  0  0  0  0  0
    9.6998   -9.4222    2.3887 F   0  0  0  0  0  0  0  0  0  0  0  0
  1  2  2  0
  1  3  1  0
  1 44  1  0
  2  6  1  0
  2 45  1  0
  3  4  2  0
  3 52  1  0
  4  5  1  0
  4 46  1  0
  5  6  2  0
  5 47  1  0
  6  7  1  0
  7  8  1  0
  7 10  2  0
  8  9  2  0
  9 11  1  0
 10 11  1  0
 10 29  1  0
 11 12  1  0
 12 13  1  0
 12 15  1  0
 12 30  1  6
 13 14  1  0
 13 21  1  0
 13 31  1  1
 14 32  1  0
 15 16  1  0
 15 17  1  0
 15 33  1  6
 16 34  1  0
 17 18  1  0
 17 20  1  0
 17 35  1  6
 18 19  1  0
 18 36  1  0
 18 37  1  0
 19 38  1  0
 20 21  1  0
 21 22  1  0
 21 39  1  6
 22 23  1  0
 23 24  2  0
 23 28  1  0
 24 25  1  0
 24 40  1  0
 25 26  2  0
 25 41  1  0
 26 27  1  0
 26 48  1  0
 27 28  2  0
 27 42  1  0
 28 43  1  0
 48 49  1  0
 48 50  1  0
 48 51  1  0
M  END
>  <i_m_Source_File_Index>  (2) 
2

>  <b_m_subgroup_collapsed>  (2) 
0

>  <r_exp_dg>  (2) 
-7.46041

>  <s_m_Source_File>  (2) 
galectin3_extra_ligands.sdf

>  <s_m_Source_Path>  (2) 
/efs/home/chaya/odyssey/projects/openfe-benchmark/Galectin

>  <s_m_entry_id>  (2) 
8

>  <s_m_entry_name>  (2) 
galectin3_extra_ligands.2

>  <s_m_subgroup_title>  (2) 
galectin3_extra_ligands

>  <s_m_subgroupid>  (2) 
galectin3_extra_ligands

>  <experimental dG reference units>  (2) 
kcal/mol

>  <experimental dG reference field>  (2) 
r_exp_dg

>  <kJ/mol experimental dG>  (2) 
-31.214355440000002

>  <kcal/mol experimental dG>  (2) 
-7.46041

>  <AmberAM1BCCCache>  (2) 
gASVNwQAAAAAAABdlCiMFm51bXB5Ll9jb3JlLm11bHRpYXJyYXmUjAZzY2FsYXKUk5SMBW51bXB5lIwFZHR5cGWUk5SMAmY4lImIh5RSlChLA4wBPJROTk5K/////0r/////SwB0lGJDCHe/9Y4GUOg/lIaUUpRoA2gJQwgAdocgbZX6P5SGlFKUaANoCUMIOiAYb1nL8z+UhpRSlGgDaAlDCHe/9Y4GUOg/lIaUUpRoA2gJQwgAdocgbZX6P5SGlFKUaANoCUMIohdaKznn9r+UhpRSlGgDaAlDCFvQ8OU7sQhAlIaUUpRoA2gJQwhtSc4FRmoNwJSGlFKUaANoCUMIMtoLmM+DAcCUhpRSlGgDaAlDCHZNxfTt4fq/lIaUUpRoA2gJQwgfCzYHjEvlP5SGlFKUaANoCUMI1bJze+433j+UhpRSlGgDaAlDCL0ZZ0NdGPY/lIaUUpRoA2gJQwix9np5pcscwJSGlFKUaANoCUMIpPjK3lJq9z+UhpRSlGgDaAlDCJsWNsjBhRvAlIaUUpRoA2gJQwi55bqAcSv4P5SGlFKUaANoCUMIdpnlsFMr+T+UhpRSlGgDaAlDCLH2enmlyxzAlIaUUpRoA2gJQwjWOCEQNf0RwJSGlFKUaANoCUMIW9ntgBHK/j+UhpRSlGgDaAlDCKxO76Me6/6/lIaUUpRoA2gJQwgs94XdCSPSv5SGlFKUaANoCUMIYFCKRd2j9L+UhpRSlGgDaAlDCC0OUnzIR/e/lIaUUpRoA2gJQwhxyWdl51zpv5SGlFKUaANoCUMILQ5SfMhH97+UhpRSlGgDaAlDCGBQikXdo/S/lIaUUpRoA2gJQwhsykLfUtgEQJSGlFKUaANoCUMIdLXquoLW7j+UhpRSlGgDaAlDCEIdwevk3vE/lIaUUpRoA2gJQwglbu+SyUYUQJSGlFKUaANoCUMIdLXquoLW7j+UhpRSlGgDaAlDCLFxktSTIhRAlIaUUpRoA2gJQwiZcotnUEvnP5SGlFKUaANoCUMIh7lHiB135D+UhpRSlGgDaAlDCIe5R4gdd+Q/lIaUUpRoA2gJQwiahKIydWETQJSGlFKUaANoCUMIqPcihJcy7D+UhpRSlGgDaAlDCAgIgZSs4vo/lIaUUpRoA2gJQwhoJJmh/sD5P5SGlFKUaANoCUMIaCSZof7A+T+UhpRSlGgDaAlDCAgIgZSs4vo/lIaUUpRoA2gJQwi32qje7zTzv5SGlFKUaANoCUMIt9qo3u8087+UhpRSlGgDaAlDCLfaqN7vNPO/lIaUUpRoA2gJQwi32qje7zTzv5SGlFKUaANoCUMIviw8kwZn5b+UhpRSlGgDaAlDCBVJSjESw+E/lIaUUpRoA2gJQwgVSUoxEsPhP5SGlFKUaANoCUMIFUlKMRLD4T+UhpRSlGgDaAlDCOboNOUYpPK/lIaUUpRlLg==

$$$$
18d
     RDKit          3D

 54 57  0  0  1  0  0  0  0  0999 V2000
   10.8011   -9.2877    0.2796 C   0  0  0  0  0  0  0  0  0  0  0  0
   11.9594   -9.0271   -0.4571 C   0  0  0  0  0  0  0  0  0  0  0  0
   10.8214   -9.1701    1.6720 C   0  0  0  0  0  0  0  0  0  0  0  0
   11.9975   -8.7929    2.3259 C   0  0  0  0  0  0  0  0  0  0  0  0
   13.1528   -8.5335    1.5842 C   0  0  0  0  0  0  0  0  0  0  0  0
   13.1326   -8.6508    0.1952 C   0  0  0  0  0  0  0  0  0  0  0  0
   14.3746   -8.3717   -0.5984 C   0  0  0  0  0  0  0  0  0  0  0  0
   14.3469   -8.0117   -1.8695 N   0  0  0  0  0  0  0  0  0  0  0  0
   15.6495   -7.8341   -2.2967 N   0  0  0  0  0  0  0  0  0  0  0  0
   15.6852   -8.4424   -0.1508 C   0  0  0  0  0  0  0  0  0  0  0  0
   16.4360   -8.0988   -1.2459 N   0  0  0  0  0  0  0  0  0  0  0  0
   17.8723   -7.9717   -1.4752 C   0  0  2  0  0  0  0  0  0  0  0  0
   18.6128   -9.2294   -0.9901 C   0  0  1  0  0  0  0  0  0  0  0  0
   18.2247  -10.3300   -1.7266 O   0  0  0  0  0  0  0  0  0  0  0  0
   18.4278   -6.7273   -0.7622 C   0  0  1  0  0  0  0  0  0  0  0  0
   18.0594   -6.7515    0.5675 O   0  0  0  0  0  0  0  0  0  0  0  0
   19.9644   -6.6641   -0.8562 C   0  0  1  0  0  0  0  0  0  0  0  0
   20.4848   -5.5093   -0.0527 C   0  0  0  0  0  0  0  0  0  0  0  0
   21.8221   -5.3181   -0.3349 O   0  0  0  0  0  0  0  0  0  0  0  0
   20.5330   -7.8771   -0.3539 O   0  0  0  0  0  0  0  0  0  0  0  0
   20.1408   -9.0499   -1.0735 C   0  0  1  0  0  0  0  0  0  0  0  0
   20.9643  -10.4642   -0.3736 S   0  0  0  0  0  0  0  0  0  0  0  0
   22.6578  -10.0777   -0.7625 C   0  0  0  0  0  0  0  0  0  0  0  0
   23.4416   -9.3885    0.1552 C   0  0  0  0  0  0  0  0  0  0  0  0
   24.7639   -9.0867   -0.1485 C   0  0  0  0  0  0  0  0  0  0  0  0
   25.3023   -9.4741   -1.3698 C   0  0  0  0  0  0  0  0  0  0  0  0
   24.5184  -10.1634   -2.2875 C   0  0  0  0  0  0  0  0  0  0  0  0
   23.1962  -10.4652   -1.9838 C   0  0  0  0  0  0  0  0  0  0  0  0
   16.1370   -8.6931    0.7999 H   0  0  0  0  0  0  0  0  0  0  0  0
   18.0004   -7.8640   -2.5546 H   0  0  0  0  0  0  0  0  0  0  0  0
   18.3359   -9.4423    0.0438 H   0  0  0  0  0  0  0  0  0  0  0  0
   18.4193  -10.2732   -2.7059 H   0  0  0  0  0  0  0  0  0  0  0  0
   17.9896   -5.8210   -1.1827 H   0  0  0  0  0  0  0  0  0  0  0  0
   17.4974   -5.9795    0.8644 H   0  0  0  0  0  0  0  0  0  0  0  0
   20.2855   -6.4938   -1.8862 H   0  0  0  0  0  0  0  0  0  0  0  0
   19.9271   -4.6083   -0.3081 H   0  0  0  0  0  0  0  0  0  0  0  0
   20.3645   -5.7222    1.0095 H   0  0  0  0  0  0  0  0  0  0  0  0
   22.2085   -5.9552   -1.0018 H   0  0  0  0  0  0  0  0  0  0  0  0
   20.4696   -8.9836   -2.1130 H   0  0  0  0  0  0  0  0  0  0  0  0
   23.0225   -9.0868    1.1060 H   0  0  0  0  0  0  0  0  0  0  0  0
   25.3742   -8.5500    0.5660 H   0  0  0  0  0  0  0  0  0  0  0  0
   24.9376  -10.4650   -3.2384 H   0  0  0  0  0  0  0  0  0  0  0  0
   22.5859  -11.0018   -2.6983 H   0  0  0  0  0  0  0  0  0  0  0  0
    9.6618   -9.6533   -0.3554 F   0  0  0  0  0  0  0  0  0  0  0  0
   11.9502   -9.1381   -1.8052 F   0  0  0  0  0  0  0  0  0  0  0  0
   12.0184   -8.6786    3.6755 F   0  0  0  0  0  0  0  0  0  0  0  0
   14.2963   -8.1677    2.2076 F   0  0  0  0  0  0  0  0  0  0  0  0
   26.7293   -9.1484   -1.6975 C   0  0  0  0  0  0  0  0  0  0  0  0
   26.9702   -9.5291   -2.6901 H   0  0  0  0  0  0  0  0  0  0  0  0
   27.3861   -9.6119   -0.9613 H   0  0  0  0  0  0  0  0  0  0  0  0
   26.8687   -8.0675   -1.6793 H   0  0  0  0  0  0  0  0  0  0  0  0
    9.5629   -9.4529    2.4761 N   0  0  0  0  0  0  0  0  0  0  0  0
    9.5769   -9.3681    3.4825 H   0  0  0  0  0  0  0  0  0  0  0  0
    8.7126   -9.7256    2.0041 H   0  0  0  0  0  0  0  0  0  0  0  0
  1  2  2  0
  1  3  1  0
  1 44  1  0
  2  6  1  0
  2 45  1  0
  3  4  2  0
  3 52  1  0
  4  5  1  0
  4 46  1  0
  5  6  2  0
  5 47  1  0
  6  7  1  0
  7  8  1  0
  7 10  2  0
  8  9  2  0
  9 11  1  0
 10 11  1  0
 10 29  1  0
 11 12  1  0
 12 13  1  0
 12 15  1  0
 12 30  1  6
 13 14  1  0
 13 21  1  0
 13 31  1  1
 14 32  1  0
 15 16  1  0
 15 17  1  0
 15 33  1  6
 16 34  1  0
 17 18  1  0
 17 20  1  0
 17 35  1  6
 18 19  1  0
 18 36  1  0
 18 37  1  0
 19 38  1  0
 20 21  1  0
 21 22  1  0
 21 39  1  6
 22 23  1  0
 23 24  2  0
 23 28  1  0
 24 25  1  0
 24 40  1  0
 25 26  2  0
 25 41  1  0
 26 27  1  0
 26 48  1  0
 27 28  2  0
 27 42  1  0
 28 43  1  0
 48 49  1  0
 48 50  1  0
 48 51  1  0
 52 53  1  0
 52 54  1  0
M  END
>  <i_m_Source_File_Index>  (3) 
3

>  <b_m_subgroup_collapsed>  (3) 
0

>  <r_exp_dg>  (3) 
-6.76476

>  <s_m_Source_File>  (3) 
galectin3_extra_ligands.sdf

>  <s_m_Source_Path>  (3) 
/efs/home/chaya/odyssey/projects/openfe-benchmark/Galectin

>  <s_m_entry_id>  (3) 
9

>  <s_m_entry_name>  (3) 
galectin3_extra_ligands.3

>  <s_m_subgroup_title>  (3) 
galectin3_extra_ligands

>  <s_m_subgroupid>  (3) 
galectin3_extra_ligands

>  <experimental dG reference units>  (3) 
kcal/mol

>  <experimental dG reference field>  (3) 
r_exp_dg

>  <kJ/mol experimental dG>  (3) 
-28.30375584

>  <kcal/mol experimental dG>  (3) 
-6.76476

>  <AmberAM1BCCCache>  (3) 
gASVXQQAAAAAAABdlCiMFm51bXB5Ll9jb3JlLm11bHRpYXJyYXmUjAZzY2FsYXKUk5SMBW51bXB5lIwFZHR5cGWUk5SMAmY4lImIh5RSlChLA4wBPJROTk5K/////0r/////SwB0lGJDCAh2Eq96zL0/lIaUUpRoA2gJQwg5GFZm2hAAQJSGlFKUaANoCUMIyaw/Fvo2/T+UhpRSlGgDaAlDCAh2Eq96zL0/lIaUUpRoA2gJQwg5GFZm2hAAQJSGlFKUaANoCUMIbPNwN40kAMCUhpRSlGgDaAlDCF4h7tkY9AtAlIaUUpRoA2gJQwiCiJz6CJ4OwJSGlFKUaANoCUMIhhV1grVh/L+UhpRSlGgDaAlDCBKtANUV6ADAlIaUUpRoA2gJQwh6d3xDdYXmP5SGlFKUaANoCUMIdZ4QUqLq3z+UhpRSlGgDaAlDCGBZkpDCVPY/lIaUUpRoA2gJQwjCQv0r5J4bwJSGlFKUaANoCUMIyIDeaW3C9D+UhpRSlGgDaAlDCGZakeF9rRrAlIaUUpRoA2gJQwi0Ty78EjHsP5SGlFKUaANoCUMI8tW4w+iH+T+UhpRSlGgDaAlDCEUuwbAacBzAlIaUUpRoA2gJQwgiTurMsf8SwJSGlFKUaANoCUMIT1N1BQOz/D+UhpRSlGgDaAlDCB78s/jXb/+/lIaUUpRoA2gJQwii+NiodDHRv5SGlFKUaANoCUMIzQxxr7OP9L+UhpRSlGgDaAlDCD3IdrrCS/e/lIaUUpRoA2gJQwhpOlmnC4Xpv5SGlFKUaANoCUMIPch2usJL97+UhpRSlGgDaAlDCM0Mca+zj/S/lIaUUpRoA2gJQwifoEZ0TcsCQJSGlFKUaANoCUMIuYIM9QyZ8D+UhpRSlGgDaAlDCPckiTE88O8/lIaUUpRoA2gJQwhTRmF/ZQEUQJSGlFKUaANoCUMIhUDUK/g88z+UhpRSlGgDaAlDCPhQSkTElBNAlIaUUpRoA2gJQwj6tVmtpifqP5SGlFKUaANoCUMI2Rpa+K0h5j+UhpRSlGgDaAlDCNkaWvitIeY/lIaUUpRoA2gJQwjoVDiNiGwTQJSGlFKUaANoCUMIkjHpGn1v7z+UhpRSlGgDaAlDCNNKBBzi/vo/lIaUUpRoA2gJQwjFaEhGHM35P5SGlFKUaANoCUMIxWhIRhzN+T+UhpRSlGgDaAlDCNNKBBzi/vo/lIaUUpRoA2gJQwhwJsUicp/3v5SGlFKUaANoCUMI+nnhLIBK9L+UhpRSlGgDaAlDCHAmxSJyn/e/lIaUUpRoA2gJQwj6eeEsgEr0v5SGlFKUaANoCUMItp0t1SqP5b+UhpRSlGgDaAlDCM/RqHpN2+E/lIaUUpRoA2gJQwjP0ah6TdvhP5SGlFKUaANoCUMIz9Goek3b4T+UhpRSlGgDaAlDCDpkuRwDUCPAlIaUUpRoA2gJQwhXe+2g4+4TQJSGlFKUaANoCUMIV3vtoOPuE0CUhpRSlGUu

$$$$
18e
     RDKit          3D

 56 59  0  0  1  0  0  0  0  0999 V2000
   10.8011   -9.2877    0.2796 C   0  0  0  0  0  0  0  0  0  0  0  0
   11.9594   -9.0271   -0.4571 C   0  0  0  0  0  0  0  0  0  0  0  0
   10.8214   -9.1701    1.6720 C   0  0  0  0  0  0  0  0  0  0  0  0
   11.9975   -8.7929    2.3259 C   0  0  0  0  0  0  0  0  0  0  0  0
   13.1528   -8.5335    1.5842 C   0  0  0  0  0  0  0  0  0  0  0  0
   13.1326   -8.6508    0.1952 C   0  0  0  0  0  0  0  0  0  0  0  0
   14.3746   -8.3717   -0.5984 C   0  0  0  0  0  0  0  0  0  0  0  0
   14.3469   -8.0117   -1.8695 N   0  0  0  0  0  0  0  0  0  0  0  0
   15.6495   -7.8341   -2.2967 N   0  0  0  0  0  0  0  0  0  0  0  0
   15.6852   -8.4424   -0.1508 C   0  0  0  0  0  0  0  0  0  0  0  0
   16.4360   -8.0988   -1.2459 N   0  0  0  0  0  0  0  0  0  0  0  0
   17.8723   -7.9717   -1.4752 C   0  0  2  0  0  0  0  0  0  0  0  0
   18.6128   -9.2294   -0.9901 C   0  0  1  0  0  0  0  0  0  0  0  0
   18.2247  -10.3300   -1.7266 O   0  0  0  0  0  0  0  0  0  0  0  0
   18.4278   -6.7273   -0.7622 C   0  0  1  0  0  0  0  0  0  0  0  0
   18.0594   -6.7515    0.5675 O   0  0  0  0  0  0  0  0  0  0  0  0
   19.9644   -6.6641   -0.8562 C   0  0  1  0  0  0  0  0  0  0  0  0
   20.4848   -5.5093   -0.0527 C   0  0  0  0  0  0  0  0  0  0  0  0
   21.8221   -5.3181   -0.3349 O   0  0  0  0  0  0  0  0  0  0  0  0
   20.5330   -7.8771   -0.3539 O   0  0  0  0  0  0  0  0  0  0  0  0
   20.1408   -9.0499   -1.0735 C   0  0  1  0  0  0  0  0  0  0  0  0
   20.9643  -10.4642   -0.3736 S   0  0  0  0  0  0  0  0  0  0  0  0
   22.6578  -10.0777   -0.7625 C   0  0  0  0  0  0  0  0  0  0  0  0
   23.4416   -9.3885    0.1552 C   0  0  0  0  0  0  0  0  0  0  0  0
   24.7639   -9.0867   -0.1485 C   0  0  0  0  0  0  0  0  0  0  0  0
   25.3023   -9.4741   -1.3698 C   0  0  0  0  0  0  0  0  0  0  0  0
   24.5184  -10.1634   -2.2875 C   0  0  0  0  0  0  0  0  0  0  0  0
   23.1962  -10.4652   -1.9838 C   0  0  0  0  0  0  0  0  0  0  0  0
   16.1370   -8.6931    0.7999 H   0  0  0  0  0  0  0  0  0  0  0  0
   18.0004   -7.8640   -2.5546 H   0  0  0  0  0  0  0  0  0  0  0  0
   18.3359   -9.4423    0.0438 H   0  0  0  0  0  0  0  0  0  0  0  0
   18.4193  -10.2732   -2.7059 H   0  0  0  0  0  0  0  0  0  0  0  0
   17.9896   -5.8210   -1.1827 H   0  0  0  0  0  0  0  0  0  0  0  0
   17.4974   -5.9795    0.8644 H   0  0  0  0  0  0  0  0  0  0  0  0
   20.2855   -6.4938   -1.8862 H   0  0  0  0  0  0  0  0  0  0  0  0
   19.9271   -4.6083   -0.3081 H   0  0  0  0  0  0  0  0  0  0  0  0
   20.3645   -5.7222    1.0095 H   0  0  0  0  0  0  0  0  0  0  0  0
   22.2085   -5.9552   -1.0018 H   0  0  0  0  0  0  0  0  0  0  0  0
   20.4696   -8.9836   -2.1130 H   0  0  0  0  0  0  0  0  0  0  0  0
   23.0225   -9.0868    1.1060 H   0  0  0  0  0  0  0  0  0  0  0  0
   25.3742   -8.5500    0.5660 H   0  0  0  0  0  0  0  0  0  0  0  0
   24.9376  -10.4650   -3.2384 H   0  0  0  0  0  0  0  0  0  0  0  0
   22.5859  -11.0018   -2.6983 H   0  0  0  0  0  0  0  0  0  0  0  0
    9.6618   -9.6533   -0.3554 F   0  0  0  0  0  0  0  0  0  0  0  0
   11.9502   -9.1381   -1.8052 F   0  0  0  0  0  0  0  0  0  0  0  0
   12.0184   -8.6786    3.6755 F   0  0  0  0  0  0  0  0  0  0  0  0
   14.2963   -8.1677    2.2076 F   0  0  0  0  0  0  0  0  0  0  0  0
   26.7293   -9.1484   -1.6975 C   0  0  0  0  0  0  0  0  0  0  0  0
   26.9702   -9.5291   -2.6901 H   0  0  0  0  0  0  0  0  0  0  0  0
   27.3861   -9.6119   -0.9613 H   0  0  0  0  0  0  0  0  0  0  0  0
   26.8687   -8.0675   -1.6793 H   0  0  0  0  0  0  0  0  0  0  0  0
    9.6921   -9.4239    2.3936 O   0  0  0  0  0  0  0  0  0  0  0  0
    8.6412  -10.0014    1.4924 C   0  0  0  0  0  0  0  0  0  0  0  0
    7.7388  -10.2042    2.0690 H   0  0  0  0  0  0  0  0  0  0  0  0
    8.4123   -9.2907    0.6983 H   0  0  0  0  0  0  0  0  0  0  0  0
    9.0079  -10.9296    1.0540 H   0  0  0  0  0  0  0  0  0  0  0  0
  1  2  2  0
  1  3  1  0
  1 44  1  0
  2  6  1  0
  2 45  1  0
  3  4  2  0
  3 52  1  0
  4  5  1  0
  4 46  1  0
  5  6  2  0
  5 47  1  0
  6  7  1  0
  7  8  1  0
  7 10  2  0
  8  9  2  0
  9 11  1  0
 10 11  1  0
 10 29  1  0
 11 12  1  0
 12 13  1  0
 12 15  1  0
 12 30  1  6
 13 14  1  0
 13 21  1  0
 13 31  1  1
 14 32  1  0
 15 16  1  0
 15 17  1  0
 15 33  1  6
 16 34  1  0
 17 18  1  0
 17 20  1  0
 17 35  1  6
 18 19  1  0
 18 36  1  0
 18 37  1  0
 19 38  1  0
 20 21  1  0
 21 22  1  0
 21 39  1  6
 22 23  1  0
 23 24  2  0
 23 28  1  0
 24 25  1  0
 24 40  1  0
 25 26  2  0
 25 41  1  0
 26 27  1  0
 26 48  1  0
 27 28  2  0
 27 42  1  0
 28 43  1  0
 48 49  1  0
 48 50  1  0
 48 51  1  0
 52 53  1  0
 53 54  1  0
 53 55  1  0
 53 56  1  0
M  END
>  <i_m_Source_File_Index>  (4) 
4

>  <b_m_subgroup_collapsed>  (4) 
0

>  <r_exp_dg>  (4) 
-6.47298

>  <s_m_Source_File>  (4) 
galectin3_extra_ligands.sdf

>  <s_m_Source_Path>  (4) 
/efs/home/chaya/odyssey/projects/openfe-benchmark/Galectin

>  <s_m_entry_id>  (4) 
10

>  <s_m_entry_name>  (4) 
galectin3_extra_ligands.4

>  <s_m_subgroup_title>  (4) 
galectin3_extra_ligands

>  <s_m_subgroupid>  (4) 
galectin3_extra_ligands

>  <experimental dG reference units>  (4) 
kcal/mol

>  <experimental dG reference field>  (4) 
r_exp_dg

>  <kJ/mol experimental dG>  (4) 
-27.08294832

>  <kcal/mol experimental dG>  (4) 
-6.47298

>  <AmberAM1BCCCache>  (4) 
gASVgwQAAAAAAABdlCiMFm51bXB5Ll9jb3JlLm11bHRpYXJyYXmUjAZzY2FsYXKUk5SMBW51bXB5lIwFZHR5cGWUk5SMAmY4lImIh5RSlChLA4wBPJROTk5K/////0r/////SwB0lGJDCE8OypxCqOU/lIaUUpRoA2gJQwgjbkm8VyT7P5SGlFKUaANoCUMILXX9DGex8j+UhpRSlGgDaAlDCE8OypxCqOU/lIaUUpRoA2gJQwgjbkm8VyT7P5SGlFKUaANoCUMIM7zDYS9O+r+UhpRSlGgDaAlDCD6+RS2IiQlAlIaUUpRoA2gJQwgsP2Gxp7MNwJSGlFKUaANoCUMI8c+eQzHNAcCUhpRSlGgDaAlDCIAv45xA1fu/lIaUUpRoA2gJQwitKuKplIbkP5SGlFKUaANoCUMINbmbplvx3j+UhpRSlGgDaAlDCA8gteVwFvY/lIaUUpRoA2gJQwh6d6m8/LMcwJSGlFKUaANoCUMI9v4YgWZo9z+UhpRSlGgDaAlDCNmTwclOkhvAlIaUUpRoA2gJQwhR54TLzFn4P5SGlFKUaANoCUMIyZ8zU2cp+T+UhpRSlGgDaAlDCB1155AgzBzAlIaUUpRoA2gJQwgTtqwRwgkSwJSGlFKUaANoCUMIrd87IyXI/j+UhpRSlGgDaAlDCFpIoQEL7f6/lIaUUpRoA2gJQwjM8F2ynGnRv5SGlFKUaANoCUMIDko8o8ml9L+UhpRSlGgDaAlDCNsHBNq0Sfe/lIaUUpRoA2gJQwhXs8NxT8Hpv5SGlFKUaANoCUMI2wcE2rRJ97+UhpRSlGgDaAlDCA5KPKPJpfS/lIaUUpRoA2gJQwjzzyvcOL8EQJSGlFKUaANoCUMIjsuOrhpy7j+UhpRSlGgDaAlDCE8ok+WwrPE/lIaUUpRoA2gJQwjo8GORPDoUQJSGlFKUaANoCUMIGcKG/6nS7j+UhpRSlGgDaAlDCEbzJb0YIhRAlIaUUpRoA2gJQwg+fyesd0fnP5SGlFKUaANoCUMIK8bjzERz5D+UhpRSlGgDaAlDCCvG48xEc+Q/lIaUUpRoA2gJQwgvBjYb+mATQJSGlFKUaANoCUMITQS/yL4u7D+UhpRSlGgDaAlDCFoOzzbA4Po/lIaUUpRoA2gJQwgYLalv7qb5P5SGlFKUaANoCUMIGC2pb+6m+T+UhpRSlGgDaAlDCFoOzzbA4Po/lIaUUpRoA2gJQwjWqbYoYen0v5SGlFKUaANoCUMIHb+Ish4Q9L+UhpRSlGgDaAlDCNaptihh6fS/lIaUUpRoA2gJQwgdv4iyHhD0v5SGlFKUaANoCUMIGCCgTt9q5b+UhpRSlGgDaAlDCLlV5nU5v+E/lIaUUpRoA2gJQwi5VeZ1Ob/hP5SGlFKUaANoCUMIuVXmdTm/4T+UhpRSlGgDaAlDCCiDD+hCCA3AlIaUUpRoA2gJQwin3FJtK7H0P5SGlFKUaANoCUMI/LdXxhsE5T+UhpRSlGgDaAlDCPy3V8YbBOU/lIaUUpRoA2gJQwj8t1fGGwTlP5SGlFKUZS4=

$$$$
18f
     RDKit          3D

 59 62  0  0  1  0  0  0  0  0999 V2000
   10.8011   -9.2877    0.2796 C   0  0  0  0  0  0  0  0  0  0  0  0
   11.9594   -9.0271   -0.4571 C   0  0  0  0  0  0  0  0  0  0  0  0
   10.8214   -9.1701    1.6720 C   0  0  0  0  0  0  0  0  0  0  0  0
   11.9975   -8.7929    2.3259 C   0  0  0  0  0  0  0  0  0  0  0  0
   13.1528   -8.5335    1.5842 C   0  0  0  0  0  0  0  0  0  0  0  0
   13.1326   -8.6508    0.1952 C   0  0  0  0  0  0  0  0  0  0  0  0
   14.3746   -8.3717   -0.5984 C   0  0  0  0  0  0  0  0  0  0  0  0
   14.3469   -8.0117   -1.8695 N   0  0  0  0  0  0  0  0  0  0  0  0
   15.6495   -7.8341   -2.2967 N   0  0  0  0  0  0  0  0  0  0  0  0
   15.6852   -8.4424   -0.1508 C   0  0  0  0  0  0  0  0  0  0  0  0
   16.4360   -8.0988   -1.2459 N   0  0  0  0  0  0  0  0  0  0  0  0
   17.8723   -7.9717   -1.4752 C   0  0  2  0  0  0  0  0  0  0  0  0
   18.6128   -9.2294   -0.9901 C   0  0  1  0  0  0  0  0  0  0  0  0
   18.2247  -10.3300   -1.7266 O   0  0  0  0  0  0  0  0  0  0  0  0
   18.4278   -6.7273   -0.7622 C   0  0  1  0  0  0  0  0  0  0  0  0
   18.0594   -6.7515    0.5675 O   0  0  0  0  0  0  0  0  0  0  0  0
   19.9644   -6.6641   -0.8562 C   0  0  1  0  0  0  0  0  0  0  0  0
   20.4848   -5.5093   -0.0527 C   0  0  0  0  0  0  0  0  0  0  0  0
   21.8221   -5.3181   -0.3349 O   0  0  0  0  0  0  0  0  0  0  0  0
   20.5330   -7.8771   -0.3539 O   0  0  0  0  0  0  0  0  0  0  0  0
   20.1408   -9.0499   -1.0735 C   0  0  1  0  0  0  0  0  0  0  0  0
   20.9643  -10.4642   -0.3736 S   0  0  0  0  0  0  0  0  0  0  0  0
   22.6578  -10.0777   -0.7625 C   0  0  0  0  0  0  0  0  0  0  0  0
   23.4416   -9.3885    0.1552 C   0  0  0  0  0  0  0  0  0  0  0  0
   24.7639   -9.0867   -0.1485 C   0  0  0  0  0  0  0  0  0  0  0  0
   25.3023   -9.4741   -1.3698 C   0  0  0  0  0  0  0  0  0  0  0  0
   24.5184  -10.1634   -2.2875 C   0  0  0  0  0  0  0  0  0  0  0  0
   23.1962  -10.4652   -1.9838 C   0  0  0  0  0  0  0  0  0  0  0  0
   16.1370   -8.6931    0.7999 H   0  0  0  0  0  0  0  0  0  0  0  0
   18.0004   -7.8640   -2.5546 H   0  0  0  0  0  0  0  0  0  0  0  0
   18.3359   -9.4423    0.0438 H   0  0  0  0  0  0  0  0  0  0  0  0
   18.4193  -10.2732   -2.7059 H   0  0  0  0  0  0  0  0  0  0  0  0
   17.9896   -5.8210   -1.1827 H   0  0  0  0  0  0  0  0  0  0  0  0
   17.4974   -5.9795    0.8644 H   0  0  0  0  0  0  0  0  0  0  0  0
   20.2855   -6.4938   -1.8862 H   0  0  0  0  0  0  0  0  0  0  0  0
   19.9271   -4.6083   -0.3081 H   0  0  0  0  0  0  0  0  0  0  0  0
   20.3645   -5.7222    1.0095 H   0  0  0  0  0  0  0  0  0  0  0  0
   22.2085   -5.9552   -1.0018 H   0  0  0  0  0  0  0  0  0  0  0  0
   20.4696   -8.9836   -2.1130 H   0  0  0  0  0  0  0  0  0  0  0  0
   23.0225   -9.0868    1.1060 H   0  0  0  0  0  0  0  0  0  0  0  0
   25.3742   -8.5500    0.5660 H   0  0  0  0  0  0  0  0  0  0  0  0
   24.9376  -10.4650   -3.2384 H   0  0  0  0  0  0  0  0  0  0  0  0
   22.5859  -11.0018   -2.6983 H   0  0  0  0  0  0  0  0  0  0  0  0
    9.6618   -9.6533   -0.3554 F   0  0  0  0  0  0  0  0  0  0  0  0
   11.9502   -9.1381   -1.8052 F   0  0  0  0  0  0  0  0  0  0  0  0
   12.0184   -8.6786    3.6755 F   0  0  0  0  0  0  0  0  0  0  0  0
   14.2963   -8.1677    2.2076 F   0  0  0  0  0  0  0  0  0  0  0  0
   26.7293   -9.1484   -1.6975 C   0  0  0  0  0  0  0  0  0  0  0  0
   26.9702   -9.5291   -2.6901 H   0  0  0  0  0  0  0  0  0  0  0  0
   27.3861   -9.6119   -0.9613 H   0  0  0  0  0  0  0  0  0  0  0  0
   26.8687   -8.0675   -1.6793 H   0  0  0  0  0  0  0  0  0  0  0  0
    9.6921   -9.4239    2.3936 O   0  0  0  0  0  0  0  0  0  0  0  0
    8.6412  -10.0014    1.4924 C   0  0  0  0  0  0  0  0  0  0  0  0
    7.9881  -11.2164    2.1770 C   0  0  0  0  0  0  0  0  0  0  0  0
    7.8810   -9.2470    1.2898 H   0  0  0  0  0  0  0  0  0  0  0  0
    9.0991  -10.3161    0.5546 H   0  0  0  0  0  0  0  0  0  0  0  0
    7.2244  -11.6361    1.5221 H   0  0  0  0  0  0  0  0  0  0  0  0
    8.7474  -11.9717    2.3794 H   0  0  0  0  0  0  0  0  0  0  0  0
    7.5293  -10.9027    3.1147 H   0  0  0  0  0  0  0  0  0  0  0  0
  1  2  2  0
  1  3  1  0
  1 44  1  0
  2  6  1  0
  2 45  1  0
  3  4  2  0
  3 52  1  0
  4  5  1  0
  4 46  1  0
  5  6  2  0
  5 47  1  0
  6  7  1  0
  7  8  1  0
  7 10  2  0
  8  9  2  0
  9 11  1  0
 10 11  1  0
 10 29  1  0
 11 12  1  0
 12 13  1  0
 12 15  1  0
 12 30  1  6
 13 14  1  0
 13 21  1  0
 13 31  1  1
 14 32  1  0
 15 16  1  0
 15 17  1  0
 15 33  1  6
 16 34  1  0
 17 18  1  0
 17 20  1  0
 17 35  1  6
 18 19  1  0
 18 36  1  0
 18 37  1  0
 19 38  1  0
 20 21  1  0
 21 22  1  0
 21 39  1  6
 22 23  1  0
 23 24  2  0
 23 28  1  0
 24 25  1  0
 24 40  1  0
 25 26  2  0
 25 41  1  0
 26 27  1  0
 26 48  1  0
 27 28  2  0
 27 42  1  0
 28 43  1  0
 48 49  1  0
 48 50  1  0
 48 51  1  0
 52 53  1  0
 53 54  1  0
 53 55  1  0
 53 56  1  0
 54 57  1  0
 54 58  1  0
 54 59  1  0
M  END
>  <i_m_Source_File_Index>  (5) 
5

>  <b_m_subgroup_collapsed>  (5) 
0

>  <r_exp_dg>  (5) 
-5.53273

>  <s_m_Source_File>  (5) 
galectin3_extra_ligands.sdf

>  <s_m_Source_Path>  (5) 
/efs/home/chaya/odyssey/projects/openfe-benchmark/Galectin

>  <s_m_entry_id>  (5) 
11

>  <s_m_entry_name>  (5) 
galectin3_extra_ligands.5

>  <s_m_subgroup_title>  (5) 
galectin3_extra_ligands

>  <s_m_subgroupid>  (5) 
galectin3_extra_ligands

>  <experimental dG reference units>  (5) 
kcal/mol

>  <experimental dG reference field>  (5) 
r_exp_dg

>  <kJ/mol experimental dG>  (5) 
-23.14894232

>  <kcal/mol experimental dG>  (5) 
-5.53273

>  <AmberAM1BCCCache>  (5) 
gASVvAQAAAAAAABdlCiMFm51bXB5Ll9jb3JlLm11bHRpYXJyYXmUjAZzY2FsYXKUk5SMBW51bXB5lIwFZHR5cGWUk5SMAmY4lImIh5RSlChLA4wBPJROTk5K/////0r/////SwB0lGJDCDzRLkaMBuY/lIaUUpRoA2gJQwhs28Vrydr6P5SGlFKUaANoCUMIHtGVe98Y8z+UhpRSlGgDaAlDCDzRLkaMBuY/lIaUUpRoA2gJQwhs28Vrydr6P5SGlFKUaANoCUMIKlnlbyIv+r+UhpRSlGgDaAlDCKTqZUdczQlAlIaUUpRoA2gJQwhQCTnoYtANwJSGlFKUaANoCUMIfKdsciFhAcCUhpRSlGgDaAlDCEyvVo/t3/y/lIaUUpRoA2gJQwiS4hKHhVXlP5SGlFKUaANoCUMIXUUVbo9t3z+UhpRSlGgDaAlDCOl0B9FUxvY/lIaUUpRoA2gJQwgRYi++BoocwJSGlFKUaANoCUMIP2yVMNge9z+UhpRSlGgDaAlDCBX7SY2LihvAlIaUUpRoA2gJQwjwZeW7N1/3P5SGlFKUaANoCUMIfguE5fDv+D+UhpRSlGgDaAlDCC9aUyx+2hzAlIaUUpRoA2gJQwiSmeyPNygSwJSGlFKUaANoCUMIwDP4/xSA/z+UhpRSlGgDaAlDCK8B2xxQrP2/lIaUUpRoA2gJQwh8YYywmA3Rv5SGlFKUaANoCUMI7N8XLijP9L+UhpRSlGgDaAlDCDyj+cq/Ove/lIaUUpRoA2gJQwjt2yJNPDTqv5SGlFKUaANoCUMIPKP5yr8697+UhpRSlGgDaAlDCOzfFy4oz/S/lIaUUpRoA2gJQwjtCiMEMG4EQJSGlFKUaANoCUMIhJknJL1f7j+UhpRSlGgDaAlDCGmHg4758/E/lIaUUpRoA2gJQwhCCszY9jsUQJSGlFKUaANoCUMIRqnfR86+7T+UhpRSlGgDaAlDCJuNyRbEGRRAlIaUUpRoA2gJQwj2XHhFK5TmP5SGlFKUaANoCUMI3ZgAmp8w5D+UhpRSlGgDaAlDCN2YAJqfMOQ/lIaUUpRoA2gJQwjAHghUwGoTQJSGlFKUaANoCUMIYcp7rNhs7D+UhpRSlGgDaAlDCIR2fId/y/o/lIaUUpRoA2gJQwhClVbArZH5P5SGlFKUaANoCUMIQpVWwK2R+T+UhpRSlGgDaAlDCIR2fId/y/o/lIaUUpRoA2gJQwg/QzX1ie70v5SGlFKUaANoCUMI7FhShkER9L+UhpRSlGgDaAlDCD9DNfWJ7vS/lIaUUpRoA2gJQwjsWFKGQRH0v5SGlFKUaANoCUMI3laLMPVM5b+UhpRSlGgDaAlDCCW2ZxMkouE/lIaUUpRoA2gJQwgltmcTJKLhP5SGlFKUaANoCUMIJbZnEySi4T+UhpRSlGgDaAlDCIM/ph/PsQ3AlIaUUpRoA2gJQwgXJwbkTtb3P5SGlFKUaANoCUMI/pabTzai87+UhpRSlGgDaAlDCK+kynTst+M/lIaUUpRoA2gJQwivpMp07LfjP5SGlFKUaANoCUMIHFiWowDA4z+UhpRSlGgDaAlDCBxYlqMAwOM/lIaUUpRoA2gJQwgcWJajAMDjP5SGlFKUZS4=

$$$$
18g
     RDKit          3D

 57 60  0  0  1  0  0  0  0  0999 V2000
   10.8011   -9.2877    0.2796 C   0  0  0  0  0  0  0  0  0  0  0  0
   11.9594   -9.0271   -0.4571 C   0  0  0  0  0  0  0  0  0  0  0  0
   10.8214   -9.1701    1.6720 C   0  0  0  0  0  0  0  0  0  0  0  0
   11.9975   -8.7929    2.3259 C   0  0  0  0  0  0  0  0  0  0  0  0
   13.1528   -8.5335    1.5842 C   0  0  0  0  0  0  0  0  0  0  0  0
   13.1326   -8.6508    0.1952 C   0  0  0  0  0  0  0  0  0  0  0  0
   14.3746   -8.3717   -0.5984 C   0  0  0  0  0  0  0  0  0  0  0  0
   14.3469   -8.0117   -1.8695 N   0  0  0  0  0  0  0  0  0  0  0  0
   15.6495   -7.8341   -2.2967 N   0  0  0  0  0  0  0  0  0  0  0  0
   15.6852   -8.4424   -0.1508 C   0  0  0  0  0  0  0  0  0  0  0  0
   16.4360   -8.0988   -1.2459 N   0  0  0  0  0  0  0  0  0  0  0  0
   17.8723   -7.9717   -1.4752 C   0  0  2  0  0  0  0  0  0  0  0  0
   18.6128   -9.2294   -0.9901 C   0  0  1  0  0  0  0  0  0  0  0  0
   18.2247  -10.3300   -1.7266 O   0  0  0  0  0  0  0  0  0  0  0  0
   18.4278   -6.7273   -0.7622 C   0  0  1  0  0  0  0  0  0  0  0  0
   18.0594   -6.7515    0.5675 O   0  0  0  0  0  0  0  0  0  0  0  0
   19.9644   -6.6641   -0.8562 C   0  0  1  0  0  0  0  0  0  0  0  0
   20.4848   -5.5093   -0.0527 C   0  0  0  0  0  0  0  0  0  0  0  0
   21.8221   -5.3181   -0.3349 O   0  0  0  0  0  0  0  0  0  0  0  0
   20.5330   -7.8771   -0.3539 O   0  0  0  0  0  0  0  0  0  0  0  0
   20.1408   -9.0499   -1.0735 C   0  0  1  0  0  0  0  0  0  0  0  0
   20.9643  -10.4642   -0.3736 S   0  0  0  0  0  0  0  0  0  0  0  0
   22.6578  -10.0777   -0.7625 C   0  0  0  0  0  0  0  0  0  0  0  0
   23.4416   -9.3885    0.1552 C   0  0  0  0  0  0  0  0  0  0  0  0
   24.7639   -9.0867   -0.1485 C   0  0  0  0  0  0  0  0  0  0  0  0
   25.3023   -9.4741   -1.3698 C   0  0  0  0  0  0  0  0  0  0  0  0
   24.5184  -10.1634   -2.2875 C   0  0  0  0  0  0  0  0  0  0  0  0
   23.1962  -10.4652   -1.9838 C   0  0  0  0  0  0  0  0  0  0  0  0
   16.1370   -8.6931    0.7999 H   0  0  0  0  0  0  0  0  0  0  0  0
   18.0004   -7.8640   -2.5546 H   0  0  0  0  0  0  0  0  0  0  0  0
   18.3359   -9.4423    0.0438 H   0  0  0  0  0  0  0  0  0  0  0  0
   18.4193  -10.2732   -2.7059 H   0  0  0  0  0  0  0  0  0  0  0  0
   17.9896   -5.8210   -1.1827 H   0  0  0  0  0  0  0  0  0  0  0  0
   17.4974   -5.9795    0.8644 H   0  0  0  0  0  0  0  0  0  0  0  0
   20.2855   -6.4938   -1.8862 H   0  0  0  0  0  0  0  0  0  0  0  0
   19.9271   -4.6083   -0.3081 H   0  0  0  0  0  0  0  0  0  0  0  0
   20.3645   -5.7222    1.0095 H   0  0  0  0  0  0  0  0  0  0  0  0
   22.2085   -5.9552   -1.0018 H   0  0  0  0  0  0  0  0  0  0  0  0
   20.4696   -8.9836   -2.1130 H   0  0  0  0  0  0  0  0  0  0  0  0
   23.0225   -9.0868    1.1060 H   0  0  0  0  0  0  0  0  0  0  0  0
   25.3742   -8.5500    0.5660 H   0  0  0  0  0  0  0  0  0  0  0  0
   24.9376  -10.4650   -3.2384 H   0  0  0  0  0  0  0  0  0  0  0  0
   22.5859  -11.0018   -2.6983 H   0  0  0  0  0  0  0  0  0  0  0  0
    9.6618   -9.6533   -0.3554 F   0  0  0  0  0  0  0  0  0  0  0  0
   11.9502   -9.1381   -1.8052 F   0  0  0  0  0  0  0  0  0  0  0  0
   12.0184   -8.6786    3.6755 F   0  0  0  0  0  0  0  0  0  0  0  0
   14.2963   -8.1677    2.2076 F   0  0  0  0  0  0  0  0  0  0  0  0
   26.7293   -9.1484   -1.6975 C   0  0  0  0  0  0  0  0  0  0  0  0
   26.9702   -9.5291   -2.6901 H   0  0  0  0  0  0  0  0  0  0  0  0
   27.3861   -9.6119   -0.9613 H   0  0  0  0  0  0  0  0  0  0  0  0
   26.8687   -8.0675   -1.6793 H   0  0  0  0  0  0  0  0  0  0  0  0
    9.5629   -9.4529    2.4761 N   0  0  0  0  0  0  0  0  0  0  0  0
    9.5769   -9.3681    3.4825 H   0  0  0  0  0  0  0  0  0  0  0  0
    8.2833   -9.8633    1.7658 C   0  0  0  0  0  0  0  0  0  0  0  0
    7.4941  -10.0221    2.5007 H   0  0  0  0  0  0  0  0  0  0  0  0
    7.9824   -9.0761    1.0746 H   0  0  0  0  0  0  0  0  0  0  0  0
    8.4546  -10.7864    1.2121 H   0  0  0  0  0  0  0  0  0  0  0  0
  1  2  2  0
  1  3  1  0
  1 44  1  0
  2  6  1  0
  2 45  1  0
  3  4  2  0
  3 52  1  0
  4  5  1  0
  4 46  1  0
  5  6  2  0
  5 47  1  0
  6  7  1  0
  7  8  1  0
  7 10  2  0
  8  9  2  0
  9 11  1  0
 10 11  1  0
 10 29  1  0
 11 12  1  0
 12 13  1  0
 12 15  1  0
 12 30  1  6
 13 14  1  0
 13 21  1  0
 13 31  1  1
 14 32  1  0
 15 16  1  0
 15 17  1  0
 15 33  1  6
 16 34  1  0
 17 18  1  0
 17 20  1  0
 17 35  1  6
 18 19  1  0
 18 36  1  0
 18 37  1  0
 19 38  1  0
 20 21  1  0
 21 22  1  0
 21 39  1  6
 22 23  1  0
 23 24  2  0
 23 28  1  0
 24 25  1  0
 24 40  1  0
 25 26  2  0
 25 41  1  0
 26 27  1  0
 26 48  1  0
 27 28  2  0
 27 42  1  0
 28 43  1  0
 48 49  1  0
 48 50  1  0
 48 51  1  0
 52 53  1  0
 52 54  1  0
 54 55  1  0
 54 56  1  0
 54 57  1  0
M  END
>  <i_m_Source_File_Index>  (6) 
6

>  <b_m_subgroup_collapsed>  (6) 
0

>  <r_exp_dg>  (6) 
-6.47298

>  <s_m_Source_File>  (6) 
galectin3_extra_ligands.sdf

>  <s_m_Source_Path>  (6) 
/efs/home/chaya/odyssey/projects/openfe-benchmark/Galectin

>  <s_m_entry_id>  (6) 
12

>  <s_m_entry_name>  (6) 
galectin3_extra_ligands.6

>  <s_m_subgroup_title>  (6) 
galectin3_extra_ligands

>  <s_m_subgroupid>  (6) 
galectin3_extra_ligands

>  <experimental dG reference units>  (6) 
kcal/mol

>  <experimental dG reference field>  (6) 
r_exp_dg

>  <kJ/mol experimental dG>  (6) 
-27.08294832

>  <kcal/mol experimental dG>  (6) 
-6.47298

>  <AmberAM1BCCCache>  (6) 
gASVlgQAAAAAAABdlCiMFm51bXB5Ll9jb3JlLm11bHRpYXJyYXmUjAZzY2FsYXKUk5SMBW51bXB5lIwFZHR5cGWUk5SMAmY4lImIh5RSlChLA4wBPJROTk5K/////0r/////SwB0lGJDCFl+tFWhJcU/lIaUUpRoA2gJQwjgv3IeUlv/P5SGlFKUaANoCUMI0ZN+fPsM/j+UhpRSlGgDaAlDCFl+tFWhJcU/lIaUUpRoA2gJQwjgv3IeUlv/P5SGlFKUaANoCUMI/fPYLczr/7+UhpRSlGgDaAlDCKMlAcMbtAtAlIaUUpRoA2gJQwgUDxjaYW8OwJSGlFKUaANoCUMIYeaY5fhr/r+UhpRSlGgDaAlDCBo9hGPfWADAlIaUUpRoA2gJQwgGg66B1L3lP5SGlFKUaANoCUMIdJTYaVat3z+UhpRSlGgDaAlDCN9WhJZvRfY/lIaUUpRoA2gJQwjevWaEDNsbwJSGlFKUaANoCUMI+Gp1Cj949T+UhpRSlGgDaAlDCILV+jmm6RrAlIaUUpRoA2gJQwhd4jqsLbXwP5SGlFKUaANoCUMIadUh7ndk+T+UhpRSlGgDaAlDCAdtoMwLhxzAlIaUUpRoA2gJQwiSFAB3LsgSwJSGlFKUaANoCUMIC0Gv555E/T+UhpRSlGgDaAlDCFsDRkrjTv+/lIaUUpRoA2gJQwheB5XoeD7Rv5SGlFKUaANoCUMIsg/KsACb9L+UhpRSlGgDaAlDCFHMsNH9Sve/lIaUUpRoA2gJQwigPt+Mvavpv5SGlFKUaANoCUMIUcyw0f1K97+UhpRSlGgDaAlDCLIPyrAAm/S/lIaUUpRoA2gJQwiMk3UcVzwDQJSGlFKUaANoCUMIfogllDw18D+UhpRSlGgDaAlDCMSDoTyEZfA/lIaUUpRoA2gJQwg5hIQlpwwUQJSGlFKUaANoCUMI2FY7/Sww8j+UhpRSlGgDaAlDCIGMq74puBNAlIaUUpRoA2gJQwjxv1/OHXDpP5SGlFKUaANoCUMIJhzueKjC5T+UhpRSlGgDaAlDCCYc7niowuU/lIaUUpRoA2gJQwgwFOJMtWkTQJSGlFKUaANoCUMI6D2xZ9Cf7j+UhpRSlGgDaAlDCPDGbwik/fo/lIaUUpRoA2gJQwhEZjpMyb35P5SGlFKUaANoCUMIRGY6TMm9+T+UhpRSlGgDaAlDCPDGbwik/fo/lIaUUpRoA2gJQwhfJ6f/3L73v5SGlFKUaANoCUMIHXot+/Zx9L+UhpRSlGgDaAlDCF8np//cvve/lIaUUpRoA2gJQwgdei379nH0v5SGlFKUaANoCUMIp6Y3EpWF5b+UhpRSlGgDaAlDCHHKylrL1OE/lIaUUpRoA2gJQwhxyspay9ThP5SGlFKUaANoCUMIccrKWsvU4T+UhpRSlGgDaAlDCDxHeiGjKyHAlIaUUpRoA2gJQwgHuqZVGfITQJSGlFKUaANoCUMICJomSFPvAECUhpRSlGgDaAlDCAEj5+4DpuI/lIaUUpRoA2gJQwgBI+fuA6biP5SGlFKUaANoCUMIASPn7gOm4j+UhpRSlGUu

$$$$
18h
     RDKit          3D

 60 63  0  0  1  0  0  0  0  0999 V2000
   10.8011   -9.2877    0.2796 C   0  0  0  0  0  0  0  0  0  0  0  0
   11.9594   -9.0271   -0.4571 C   0  0  0  0  0  0  0  0  0  0  0  0
   10.8214   -9.1701    1.6720 C   0  0  0  0  0  0  0  0  0  0  0  0
   11.9975   -8.7929    2.3259 C   0  0  0  0  0  0  0  0  0  0  0  0
   13.1528   -8.5335    1.5842 C   0  0  0  0  0  0  0  0  0  0  0  0
   13.1326   -8.6508    0.1952 C   0  0  0  0  0  0  0  0  0  0  0  0
   14.3746   -8.3717   -0.5984 C   0  0  0  0  0  0  0  0  0  0  0  0
   14.3469   -8.0117   -1.8695 N   0  0  0  0  0  0  0  0  0  0  0  0
   15.6495   -7.8341   -2.2967 N   0  0  0  0  0  0  0  0  0  0  0  0
   15.6852   -8.4424   -0.1508 C   0  0  0  0  0  0  0  0  0  0  0  0
   16.4360   -8.0988   -1.2459 N   0  0  0  0  0  0  0  0  0  0  0  0
   17.8723   -7.9717   -1.4752 C   0  0  2  0  0  0  0  0  0  0  0  0
   18.6128   -9.2294   -0.9901 C   0  0  1  0  0  0  0  0  0  0  0  0
   18.2247  -10.3300   -1.7266 O   0  0  0  0  0  0  0  0  0  0  0  0
   18.4278   -6.7273   -0.7622 C   0  0  1  0  0  0  0  0  0  0  0  0
   18.0594   -6.7515    0.5675 O   0  0  0  0  0  0  0  0  0  0  0  0
   19.9644   -6.6641   -0.8562 C   0  0  1  0  0  0  0  0  0  0  0  0
   20.4848   -5.5093   -0.0527 C   0  0  0  0  0  0  0  0  0  0  0  0
   21.8221   -5.3181   -0.3349 O   0  0  0  0  0  0  0  0  0  0  0  0
   20.5330   -7.8771   -0.3539 O   0  0  0  0  0  0  0  0  0  0  0  0
   20.1408   -9.0499   -1.0735 C   0  0  1  0  0  0  0  0  0  0  0  0
   20.9643  -10.4642   -0.3736 S   0  0  0  0  0  0  0  0  0  0  0  0
   22.6578  -10.0777   -0.7625 C   0  0  0  0  0  0  0  0  0  0  0  0
   23.4416   -9.3885    0.1552 C   0  0  0  0  0  0  0  0  0  0  0  0
   24.7639   -9.0867   -0.1485 C   0  0  0  0  0  0  0  0  0  0  0  0
   25.3023   -9.4741   -1.3698 C   0  0  0  0  0  0  0  0  0  0  0  0
   24.5184  -10.1634   -2.2875 C   0  0  0  0  0  0  0  0  0  0  0  0
   23.1962  -10.4652   -1.9838 C   0  0  0  0  0  0  0  0  0  0  0  0
   16.1370   -8.6931    0.7999 H   0  0  0  0  0  0  0  0  0  0  0  0
   18.0004   -7.8640   -2.5546 H   0  0  0  0  0  0  0  0  0  0  0  0
   18.3359   -9.4423    0.0438 H   0  0  0  0  0  0  0  0  0  0  0  0
   18.4193  -10.2732   -2.7059 H   0  0  0  0  0  0  0  0  0  0  0  0
   17.9896   -5.8210   -1.1827 H   0  0  0  0  0  0  0  0  0  0  0  0
   17.4974   -5.9795    0.8644 H   0  0  0  0  0  0  0  0  0  0  0  0
   20.2855   -6.4938   -1.8862 H   0  0  0  0  0  0  0  0  0  0  0  0
   19.9271   -4.6083   -0.3081 H   0  0  0  0  0  0  0  0  0  0  0  0
   20.3645   -5.7222    1.0095 H   0  0  0  0  0  0  0  0  0  0  0  0
   22.2085   -5.9552   -1.0018 H   0  0  0  0  0  0  0  0  0  0  0  0
   20.4696   -8.9836   -2.1130 H   0  0  0  0  0  0  0  0  0  0  0  0
   23.0225   -9.0868    1.1060 H   0  0  0  0  0  0  0  0  0  0  0  0
   25.3742   -8.5500    0.5660 H   0  0  0  0  0  0  0  0  0  0  0  0
   24.9376  -10.4650   -3.2384 H   0  0  0  0  0  0  0  0  0  0  0  0
   22.5859  -11.0018   -2.6983 H   0  0  0  0  0  0  0  0  0  0  0  0
    9.6618   -9.6533   -0.3554 F   0  0  0  0  0  0  0  0  0  0  0  0
   11.9502   -9.1381   -1.8052 F   0  0  0  0  0  0  0  0  0  0  0  0
   12.0184   -8.6786    3.6755 F   0  0  0  0  0  0  0  0  0  0  0  0
   14.2963   -8.1677    2.2076 F   0  0  0  0  0  0  0  0  0  0  0  0
   26.7293   -9.1484   -1.6975 C   0  0  0  0  0  0  0  0  0  0  0  0
   26.9702   -9.5291   -2.6901 H   0  0  0  0  0  0  0  0  0  0  0  0
   27.3861   -9.6119   -0.9613 H   0  0  0  0  0  0  0  0  0  0  0  0
   26.8687   -8.0675   -1.6793 H   0  0  0  0  0  0  0  0  0  0  0  0
    9.5629   -9.4529    2.4761 N   0  0  0  0  0  0  0  0  0  0  0  0
    9.5840   -9.3253    3.9906 C   0  0  0  0  0  0  0  0  0  0  0  0
    8.2833   -9.8633    1.7658 C   0  0  0  0  0  0  0  0  0  0  0  0
    7.5771  -10.2658    2.4920 H   0  0  0  0  0  0  0  0  0  0  0  0
    7.8443   -8.9942    1.2759 H   0  0  0  0  0  0  0  0  0  0  0  0
    8.5104  -10.6247    1.0195 H   0  0  0  0  0  0  0  0  0  0  0  0
    8.5985   -9.5653    4.3898 H   0  0  0  0  0  0  0  0  0  0  0  0
   10.3205  -10.0147    4.4036 H   0  0  0  0  0  0  0  0  0  0  0  0
    9.8483   -8.3043    4.2661 H   0  0  0  0  0  0  0  0  0  0  0  0
  1  2  2  0
  1  3  1  0
  1 44  1  0
  2  6  1  0
  2 45  1  0
  3  4  2  0
  3 52  1  0
  4  5  1  0
  4 46  1  0
  5  6  2  0
  5 47  1  0
  6  7  1  0
  7  8  1  0
  7 10  2  0
  8  9  2  0
  9 11  1  0
 10 11  1  0
 10 29  1  0
 11 12  1  0
 12 13  1  0
 12 15  1  0
 12 30  1  6
 13 14  1  0
 13 21  1  0
 13 31  1  1
 14 32  1  0
 15 16  1  0
 15 17  1  0
 15 33  1  6
 16 34  1  0
 17 18  1  0
 17 20  1  0
 17 35  1  6
 18 19  1  0
 18 36  1  0
 18 37  1  0
 19 38  1  0
 20 21  1  0
 21 22  1  0
 21 39  1  6
 22 23  1  0
 23 24  2  0
 23 28  1  0
 24 25  1  0
 24 40  1  0
 25 26  2  0
 25 41  1  0
 26 27  1  0
 26 48  1  0
 27 28  2  0
 27 42  1  0
 28 43  1  0
 48 49  1  0
 48 50  1  0
 48 51  1  0
 52 53  1  0
 52 54  1  0
 53 58  1  0
 53 59  1  0
 53 60  1  0
 54 55  1  0
 54 56  1  0
 54 57  1  0
M  END
>  <i_m_Source_File_Index>  (7) 
7

>  <b_m_subgroup_collapsed>  (7) 
0

>  <r_exp_dg>  (7) 
-5.99988

>  <s_m_Source_File>  (7) 
galectin3_extra_ligands.sdf

>  <s_m_Source_Path>  (7) 
/efs/home/chaya/odyssey/projects/openfe-benchmark/Galectin

>  <s_m_entry_id>  (7) 
13

>  <s_m_entry_name>  (7) 
galectin3_extra_ligands.7

>  <s_m_subgroup_title>  (7) 
galectin3_extra_ligands

>  <s_m_subgroupid>  (7) 
galectin3_extra_ligands

>  <experimental dG reference units>  (7) 
kcal/mol

>  <experimental dG reference field>  (7) 
r_exp_dg

>  <kJ/mol experimental dG>  (7) 
-25.103497920000002

>  <kcal/mol experimental dG>  (7) 
-5.99988

>  <AmberAM1BCCCache>  (7) 
gASVzwQAAAAAAABdlCiMFm51bXB5Ll9jb3JlLm11bHRpYXJyYXmUjAZzY2FsYXKUk5SMBW51bXB5lIwFZHR5cGWUk5SMAmY4lImIh5RSlChLA4wBPJROTk5K/////0r/////SwB0lGJDCAcVWcBgp+c/lIaUUpRoA2gJQwhrOM3us0/5P5SGlFKUaANoCUMIZrKeDB199j+UhpRSlGgDaAlDCAcVWcBgp+c/lIaUUpRoA2gJQwhrOM3us0/5P5SGlFKUaANoCUMIiTJM2/+O+b+UhpRSlGgDaAlDCNR44zK7UQpAlIaUUpRoA2gJQwhcawPZ8uwNwJSGlFKUaANoCUMI0B4J7W6kAMCUhpRSlGgDaAlDCKNjM038uf2/lIaUUpRoA2gJQwg7V5GJdQPlP5SGlFKUaANoCUMIOiUKxP4p3z+UhpRSlGgDaAlDCBG7EK2ZJPY/lIaUUpRoA2gJQwgBmfkj9VscwJSGlFKUaANoCUMIB7Dc4ECV9j+UhpRSlGgDaAlDCMuz5RNfShvAlIaUUpRoA2gJQwiGxBhcCsT1P5SGlFKUaANoCUMIhD8TckgH+T+UhpRSlGgDaAlDCCaPpm2KwBzAlIaUUpRoA2gJQwg7yI9co04SwJSGlFKUaANoCUMIcYpPDl81/j+UhpRSlGgDaAlDCJ6oweIpD/+/lIaUUpRoA2gJQwjIhO+U+TDRv5SGlFKUaANoCUMIQ65Kzayf9L+UhpRSlGgDaAlDCEZrfPWjS/e/lIaUUpRoA2gJQwhUfQzj/aTpv5SGlFKUaANoCUMIRmt89aNL97+UhpRSlGgDaAlDCEOuSs2sn/S/lIaUUpRoA2gJQwjJrr2ARhUEQJSGlFKUaANoCUMIf+vdpLpv7z+UhpRSlGgDaAlDCBPTptDqGfE/lIaUUpRoA2gJQwjQ2pL9lh0UQJSGlFKUaANoCUMIiNyuf1u58D+UhpRSlGgDaAlDCCXfy01V8RNAlIaUUpRoA2gJQwi7lW7zpqXoP5SGlFKUaANoCUMIwv3GeH5/5D+UhpRSlGgDaAlDCML9xnh+f+Q/lIaUUpRoA2gJQwhV7VdUfmATQJSGlFKUaANoCUMIiyq+M//r7D+UhpRSlGgDaAlDCMin/uAA//o/lIaUUpRoA2gJQwjjyJpFC635P5SGlFKUaANoCUMI48iaRQut+T+UhpRSlGgDaAlDCMin/uAA//o/lIaUUpRoA2gJQwgo7JLfRT32v5SGlFKUaANoCUMIjxPfuPCq9L+UhpRSlGgDaAlDCCjskt9FPfa/lIaUUpRoA2gJQwiPE9+48Kr0v5SGlFKUaANoCUMI7+aQhb1u5b+UhpRSlGgDaAlDCOOO9T5bu+E/lIaUUpRoA2gJQwjjjvU+W7vhP5SGlFKUaANoCUMI4471Plu74T+UhpRSlGgDaAlDCBk1kJ49TR7AlIaUUpRoA2gJQwj71b8JU3oAQJSGlFKUaANoCUMI+9W/CVN6AECUhpRSlGgDaAlDCK8ywqec/+A/lIaUUpRoA2gJQwivMsKnnP/gP5SGlFKUaANoCUMIrzLCp5z/4D+UhpRSlGgDaAlDCK8ywqec/+A/lIaUUpRoA2gJQwivMsKnnP/gP5SGlFKUaANoCUMIrzLCp5z/4D+UhpRSlGUu

$$$$
18i
     RDKit          3D

 64 68  0  0  1  0  0  0  0  0999 V2000
   10.8011   -9.2877    0.2796 C   0  0  0  0  0  0  0  0  0  0  0  0
   11.9594   -9.0271   -0.4571 C   0  0  0  0  0  0  0  0  0  0  0  0
   10.8214   -9.1701    1.6720 C   0  0  0  0  0  0  0  0  0  0  0  0
   11.9975   -8.7929    2.3259 C   0  0  0  0  0  0  0  0  0  0  0  0
   13.1528   -8.5335    1.5842 C   0  0  0  0  0  0  0  0  0  0  0  0
   13.1326   -8.6508    0.1952 C   0  0  0  0  0  0  0  0  0  0  0  0
   14.3746   -8.3717   -0.5984 C   0  0  0  0  0  0  0  0  0  0  0  0
   14.3469   -8.0117   -1.8695 N   0  0  0  0  0  0  0  0  0  0  0  0
   15.6495   -7.8341   -2.2967 N   0  0  0  0  0  0  0  0  0  0  0  0
   15.6852   -8.4424   -0.1508 C   0  0  0  0  0  0  0  0  0  0  0  0
   16.4360   -8.0988   -1.2459 N   0  0  0  0  0  0  0  0  0  0  0  0
   17.8723   -7.9717   -1.4752 C   0  0  2  0  0  0  0  0  0  0  0  0
   18.6128   -9.2294   -0.9901 C   0  0  1  0  0  0  0  0  0  0  0  0
   18.2247  -10.3300   -1.7266 O   0  0  0  0  0  0  0  0  0  0  0  0
   18.4278   -6.7273   -0.7622 C   0  0  1  0  0  0  0  0  0  0  0  0
   18.0594   -6.7515    0.5675 O   0  0  0  0  0  0  0  0  0  0  0  0
   19.9644   -6.6641   -0.8562 C   0  0  1  0  0  0  0  0  0  0  0  0
   20.4848   -5.5093   -0.0527 C   0  0  0  0  0  0  0  0  0  0  0  0
   21.8221   -5.3181   -0.3349 O   0  0  0  0  0  0  0  0  0  0  0  0
   20.5330   -7.8771   -0.3539 O   0  0  0  0  0  0  0  0  0  0  0  0
   20.1408   -9.0499   -1.0735 C   0  0  1  0  0  0  0  0  0  0  0  0
   20.9643  -10.4642   -0.3736 S   0  0  0  0  0  0  0  0  0  0  0  0
   22.6578  -10.0777   -0.7625 C   0  0  0  0  0  0  0  0  0  0  0  0
   23.4416   -9.3885    0.1552 C   0  0  0  0  0  0  0  0  0  0  0  0
   24.7639   -9.0867   -0.1485 C   0  0  0  0  0  0  0  0  0  0  0  0
   25.3023   -9.4741   -1.3698 C   0  0  0  0  0  0  0  0  0  0  0  0
   24.5184  -10.1634   -2.2875 C   0  0  0  0  0  0  0  0  0  0  0  0
   23.1962  -10.4652   -1.9838 C   0  0  0  0  0  0  0  0  0  0  0  0
   16.1370   -8.6931    0.7999 H   0  0  0  0  0  0  0  0  0  0  0  0
   18.0004   -7.8640   -2.5546 H   0  0  0  0  0  0  0  0  0  0  0  0
   18.3359   -9.4423    0.0438 H   0  0  0  0  0  0  0  0  0  0  0  0
   18.4193  -10.2732   -2.7059 H   0  0  0  0  0  0  0  0  0  0  0  0
   17.9896   -5.8210   -1.1827 H   0  0  0  0  0  0  0  0  0  0  0  0
   17.4974   -5.9795    0.8644 H   0  0  0  0  0  0  0  0  0  0  0  0
   20.2855   -6.4938   -1.8862 H   0  0  0  0  0  0  0  0  0  0  0  0
   19.9271   -4.6083   -0.3081 H   0  0  0  0  0  0  0  0  0  0  0  0
   20.3645   -5.7222    1.0095 H   0  0  0  0  0  0  0  0  0  0  0  0
   22.2085   -5.9552   -1.0018 H   0  0  0  0  0  0  0  0  0  0  0  0
   20.4696   -8.9836   -2.1130 H   0  0  0  0  0  0  0  0  0  0  0  0
   23.0225   -9.0868    1.1060 H   0  0  0  0  0  0  0  0  0  0  0  0
   25.3742   -8.5500    0.5660 H   0  0  0  0  0  0  0  0  0  0  0  0
   24.9376  -10.4650   -3.2384 H   0  0  0  0  0  0  0  0  0  0  0  0
   22.5859  -11.0018   -2.6983 H   0  0  0  0  0  0  0  0  0  0  0  0
    9.6618   -9.6533   -0.3554 F   0  0  0  0  0  0  0  0  0  0  0  0
   11.9502   -9.1381   -1.8052 F   0  0  0  0  0  0  0  0  0  0  0  0
   12.0184   -8.6786    3.6755 F   0  0  0  0  0  0  0  0  0  0  0  0
   14.2963   -8.1677    2.2076 F   0  0  0  0  0  0  0  0  0  0  0  0
   26.7293   -9.1484   -1.6975 C   0  0  0  0  0  0  0  0  0  0  0  0
   26.9702   -9.5291   -2.6901 H   0  0  0  0  0  0  0  0  0  0  0  0
   27.3861   -9.6119   -0.9613 H   0  0  0  0  0  0  0  0  0  0  0  0
   26.8687   -8.0675   -1.6793 H   0  0  0  0  0  0  0  0  0  0  0  0
    9.4966   -9.4771    2.4028 N   0  0  0  0  0  0  0  0  0  0  0  0
    9.0376  -10.9117    2.1090 C   0  0  0  0  0  0  0  0  0  0  0  0
    7.5105  -10.8154    2.1058 C   0  0  0  0  0  0  0  0  0  0  0  0
    7.2650   -9.4922    1.3771 C   0  0  0  0  0  0  0  0  0  0  0  0
    8.3597   -8.5607    1.9154 C   0  0  0  0  0  0  0  0  0  0  0  0
    9.4133  -11.6357    2.8321 H   0  0  0  0  0  0  0  0  0  0  0  0
    9.3811  -11.2134    1.1195 H   0  0  0  0  0  0  0  0  0  0  0  0
    7.0209  -11.6852    1.6051 H   0  0  0  0  0  0  0  0  0  0  0  0
    7.1311  -10.7489    3.1544 H   0  0  0  0  0  0  0  0  0  0  0  0
    7.4059   -9.6459    0.2795 H   0  0  0  0  0  0  0  0  0  0  0  0
    6.2342   -9.0946    1.5402 H   0  0  0  0  0  0  0  0  0  0  0  0
    7.9605   -7.9615    2.7696 H   0  0  0  0  0  0  0  0  0  0  0  0
    8.7026   -7.8416    1.1330 H   0  0  0  0  0  0  0  0  0  0  0  0
  1  2  2  0
  1  3  1  0
  1 44  1  0
  2  6  1  0
  2 45  1  0
  3  4  2  0
  3 52  1  0
  4  5  1  0
  4 46  1  0
  5  6  2  0
  5 47  1  0
  6  7  1  0
  7  8  1  0
  7 10  2  0
  8  9  2  0
  9 11  1  0
 10 11  1  0
 10 29  1  0
 11 12  1  0
 12 13  1  0
 12 15  1  0
 12 30  1  6
 13 14  1  0
 13 21  1  0
 13 31  1  1
 14 32  1  0
 15 16  1  0
 15 17  1  0
 15 33  1  6
 16 34  1  0
 17 18  1  0
 17 20  1  0
 17 35  1  6
 18 19  1  0
 18 36  1  0
 18 37  1  0
 19 38  1  0
 20 21  1  0
 21 22  1  0
 21 39  1  6
 22 23  1  0
 23 24  2  0
 23 28  1  0
 24 25  1  0
 24 40  1  0
 25 26  2  0
 25 41  1  0
 26 27  1  0
 26 48  1  0
 27 28  2  0
 27 42  1  0
 28 43  1  0
 48 49  1  0
 48 50  1  0
 48 51  1  0
 52 53  1  0
 52 56  1  0
 53 54  1  0
 53 57  1  0
 53 58  1  0
 54 55  1  0
 54 59  1  0
 54 60  1  0
 55 56  1  0
 55 61  1  0
 55 62  1  0
 56 63  1  0
 56 64  1  0
M  END
>  <i_m_Source_File_Index>  (8) 
8

>  <b_m_subgroup_collapsed>  (8) 
0

>  <r_exp_dg>  (8) 
-4.80608

>  <s_m_Source_File>  (8) 
galectin3_extra_ligands.sdf

>  <s_m_Source_Path>  (8) 
/efs/home/chaya/odyssey/projects/openfe-benchmark/Galectin

>  <s_m_entry_id>  (8) 
14

>  <s_m_entry_name>  (8) 
galectin3_extra_ligands.8

>  <s_m_subgroup_title>  (8) 
galectin3_extra_ligands

>  <s_m_subgroupid>  (8) 
galectin3_extra_ligands

>  <experimental dG reference units>  (8) 
kcal/mol

>  <experimental dG reference field>  (8) 
r_exp_dg

>  <kJ/mol experimental dG>  (8) 
-20.10863872

>  <kcal/mol experimental dG>  (8) 
-4.80608

>  <AmberAM1BCCCache>  (8) 
gASVGwUAAAAAAABdlCiMFm51bXB5Ll9jb3JlLm11bHRpYXJyYXmUjAZzY2FsYXKUk5SMBW51bXB5lIwFZHR5cGWUk5SMAmY4lImIh5RSlChLA4wBPJROTk5K/////0r/////SwB0lGJDCJVwhzuL2Ks/lIaUUpRoA2gJQwi30CuCSq3/P5SGlFKUaANoCUMIK5ExzX1LAkCUhpRSlGgDaAlDCJVwhzuL2Ks/lIaUUpRoA2gJQwi30CuCSq3/P5SGlFKUaANoCUMIAJzF1TCpAMCUhpRSlGgDaAlDCKtzytzCowtAlIaUUpRoA2gJQwh+3wIaPk4OwJSGlFKUaANoCUMIkGhl0ZqrAMCUhpRSlGgDaAlDCKwycvwQfv+/lIaUUpRoA2gJQwgr1SnK5nLkP5SGlFKUaANoCUMIzfES2q3r3z+UhpRSlGgDaAlDCPDyFsq9JPY/lIaUUpRoA2gJQwi6W+tkFzQcwJSGlFKUaANoCUMI+YQQPv1x9j+UhpRSlGgDaAlDCM+m3x5HQBvAlIaUUpRoA2gJQwjATzrM4Hv0P5SGlFKUaANoCUMIRd7Zl5gC+T+UhpRSlGgDaAlDCOtPIYrKrBzAlIaUUpRoA2gJQwi2NqsT0HISwJSGlFKUaANoCUMIWixubn8Q/j+UhpRSlGgDaAlDCGY39lPJTf+/lIaUUpRoA2gJQwi1HOVbmoLQv5SGlFKUaANoCUMIwwx3dIbA9L+UhpRSlGgDaAlDCOvMANdNTPe/lIaUUpRoA2gJQwhebXouTejpv5SGlFKUaANoCUMI68wA101M97+UhpRSlGgDaAlDCMMMd3SGwPS/lIaUUpRoA2gJQwh4BFEIj9IDQJSGlFKUaANoCUMIZl5CGdNP7z+UhpRSlGgDaAlDCDunRB+z/vA/lIaUUpRoA2gJQwh8A0AZXBIUQJSGlFKUaANoCUMItHlJiMPE8D+UhpRSlGgDaAlDCL8gE13x7BNAlIaUUpRoA2gJQwjmA08QB7boP5SGlFKUaANoCUMIHGDdupEI5T+UhpRSlGgDaAlDCBxg3bqRCOU/lIaUUpRoA2gJQwjH4Q5duV8TQJSGlFKUaANoCUMIKWBv7RYz7T+UhpRSlGgDaAlDCL9FL/hcAvs/lIaUUpRoA2gJQwhVAs1/F535P5SGlFKUaANoCUMIVQLNfxed+T+UhpRSlGgDaAlDCL9FL/hcAvs/lIaUUpRoA2gJQwhmTqwYiEL4v5SGlFKUaANoCUMIEaeXgUi59L+UhpRSlGgDaAlDCGZOrBiIQvi/lIaUUpRoA2gJQwgRp5eBSLn0v5SGlFKUaANoCUMIGhFaUT1r5b+UhpRSlGgDaAlDCGHfQbNOxeE/lIaUUpRoA2gJQwhh30GzTsXhP5SGlFKUaANoCUMIYd9Bs07F4T+UhpRSlGgDaAlDCJS4VwB9oB7AlIaUUpRoA2gJQwixvixkbYUCQJSGlFKUaANoCUMIAAiqg4vb8L+UhpRSlGgDaAlDCAAIqoOL2/C/lIaUUpRoA2gJQwixvixkbYUCQJSGlFKUaANoCUMIgNpCeTdH5j+UhpRSlGgDaAlDCIDaQnk3R+Y/lIaUUpRoA2gJQwgaYN26kQjlP5SGlFKUaANoCUMIGmDdupEI5T+UhpRSlGgDaAlDCBpg3bqRCOU/lIaUUpRoA2gJQwgaYN26kQjlP5SGlFKUaANoCUMIgNpCeTdH5j+UhpRSlGgDaAlDCIDaQnk3R+Y/lIaUUpRlLg==

$$$$
17m
     RDKit          3D

 55 58  0  0  1  0  0  0  0  0999 V2000
   14.3747   -8.3717   -0.5984 C   0  0  0  0  0  0  0  0  0  0  0  0
   14.3469   -8.0117   -1.8695 N   0  0  0  0  0  0  0  0  0  0  0  0
   15.6495   -7.8341   -2.2967 N   0  0  0  0  0  0  0  0  0  0  0  0
   15.6852   -8.4424   -0.1508 C   0  0  0  0  0  0  0  0  0  0  0  0
   16.4360   -8.0988   -1.2460 N   0  0  0  0  0  0  0  0  0  0  0  0
   17.8723   -7.9717   -1.4752 C   0  0  2  0  0  0  0  0  0  0  0  0
   18.6128   -9.2294   -0.9901 C   0  0  1  0  0  0  0  0  0  0  0  0
   18.2247  -10.3300   -1.7266 O   0  0  0  0  0  0  0  0  0  0  0  0
   18.4278   -6.7273   -0.7622 C   0  0  1  0  0  0  0  0  0  0  0  0
   18.0585   -6.7515    0.5671 O   0  0  0  0  0  0  0  0  0  0  0  0
   19.9644   -6.6641   -0.8562 C   0  0  1  0  0  0  0  0  0  0  0  0
   20.4848   -5.5093   -0.0527 C   0  0  0  0  0  0  0  0  0  0  0  0
   21.8221   -5.3181   -0.3349 O   0  0  0  0  0  0  0  0  0  0  0  0
   20.5330   -7.8771   -0.3539 O   0  0  0  0  0  0  0  0  0  0  0  0
   20.1408   -9.0499   -1.0735 C   0  0  1  0  0  0  0  0  0  0  0  0
   20.9643  -10.4642   -0.3736 S   0  0  0  0  0  0  0  0  0  0  0  0
   22.6578  -10.0777   -0.7625 C   0  0  0  0  0  0  0  0  0  0  0  0
   23.4416   -9.3885    0.1552 C   0  0  0  0  0  0  0  0  0  0  0  0
   24.7639   -9.0867   -0.1485 C   0  0  0  0  0  0  0  0  0  0  0  0
   25.3023   -9.4741   -1.3698 C   0  0  0  0  0  0  0  0  0  0  0  0
   24.5184  -10.1634   -2.2875 C   0  0  0  0  0  0  0  0  0  0  0  0
   23.1962  -10.4652   -1.9838 C   0  0  0  0  0  0  0  0  0  0  0  0
   16.1370   -8.6931    0.7999 H   0  0  0  0  0  0  0  0  0  0  0  0
   18.0004   -7.8640   -2.5546 H   0  0  0  0  0  0  0  0  0  0  0  0
   18.3359   -9.4423    0.0438 H   0  0  0  0  0  0  0  0  0  0  0  0
   18.4193  -10.2732   -2.7059 H   0  0  0  0  0  0  0  0  0  0  0  0
   17.9896   -5.8210   -1.1827 H   0  0  0  0  0  0  0  0  0  0  0  0
   17.4975   -5.9795    0.8644 H   0  0  0  0  0  0  0  0  0  0  0  0
   20.2855   -6.4938   -1.8862 H   0  0  0  0  0  0  0  0  0  0  0  0
   19.9271   -4.6083   -0.3081 H   0  0  0  0  0  0  0  0  0  0  0  0
   20.3645   -5.7222    1.0095 H   0  0  0  0  0  0  0  0  0  0  0  0
   22.2085   -5.9552   -1.0018 H   0  0  0  0  0  0  0  0  0  0  0  0
   20.4696   -8.9836   -2.1130 H   0  0  0  0  0  0  0  0  0  0  0  0
   23.0225   -9.0868    1.1060 H   0  0  0  0  0  0  0  0  0  0  0  0
   25.3742   -8.5500    0.5660 H   0  0  0  0  0  0  0  0  0  0  0  0
   24.9376  -10.4650   -3.2384 H   0  0  0  0  0  0  0  0  0  0  0  0
   22.5859  -11.0018   -2.6983 H   0  0  0  0  0  0  0  0  0  0  0  0
   26.7293   -9.1484   -1.6975 C   0  0  0  0  0  0  0  0  0  0  0  0
   26.9702   -9.5291   -2.6901 H   0  0  0  0  0  0  0  0  0  0  0  0
   27.3861   -9.6119   -0.9613 H   0  0  0  0  0  0  0  0  0  0  0  0
   26.8687   -8.0675   -1.6793 H   0  0  0  0  0  0  0  0  0  0  0  0
   12.6058   -9.4223   -0.3810 H   0  0  0  0  0  0  0  0  0  0  0  0
   13.1787   -8.6363    0.1484 C   0  0  0  0  0  0  0  0  0  0  0  0
   12.3121   -7.3767    0.2807 C   0  0  0  0  0  0  0  0  0  0  0  0
   11.6305   -7.5411    1.6409 C   0  0  0  0  0  0  0  0  0  0  0  0
   12.7581   -8.1041    2.5090 C   0  0  0  0  0  0  0  0  0  0  0  0
   13.4800   -9.0959    1.5864 C   0  0  0  0  0  0  0  0  0  0  0  0
   11.5829   -7.2587   -0.5568 H   0  0  0  0  0  0  0  0  0  0  0  0
   12.9642   -6.4698    0.3023 H   0  0  0  0  0  0  0  0  0  0  0  0
   11.2133   -6.5839    2.0367 H   0  0  0  0  0  0  0  0  0  0  0  0
   10.8013   -8.2855    1.5636 H   0  0  0  0  0  0  0  0  0  0  0  0
   13.4530   -7.2759    2.7908 H   0  0  0  0  0  0  0  0  0  0  0  0
   12.3841   -8.5756    3.4497 H   0  0  0  0  0  0  0  0  0  0  0  0
   13.0785  -10.1256    1.7494 H   0  0  0  0  0  0  0  0  0  0  0  0
   14.5758   -9.1260    1.7996 H   0  0  0  0  0  0  0  0  0  0  0  0
  1  2  1  0
  1  4  2  0
  1 43  1  0
  2  3  2  0
  3  5  1  0
  4  5  1  0
  4 23  1  0
  5  6  1  0
  6  7  1  0
  6  9  1  0
  6 24  1  6
  7  8  1  0
  7 15  1  0
  7 25  1  1
  8 26  1  0
  9 10  1  0
  9 11  1  0
  9 27  1  6
 10 28  1  0
 11 12  1  0
 11 14  1  0
 11 29  1  6
 12 13  1  0
 12 30  1  0
 12 31  1  0
 13 32  1  0
 14 15  1  0
 15 16  1  0
 15 33  1  6
 16 17  1  0
 17 18  2  0
 17 22  1  0
 18 19  1  0
 18 34  1  0
 19 20  2  0
 19 35  1  0
 20 21  1  0
 20 38  1  0
 21 22  2  0
 21 36  1  0
 22 37  1  0
 38 39  1  0
 38 40  1  0
 38 41  1  0
 42 43  1  0
 43 44  1  0
 43 47  1  0
 44 45  1  0
 44 48  1  0
 44 49  1  0
 45 46  1  0
 45 50  1  0
 45 51  1  0
 46 47  1  0
 46 52  1  0
 46 53  1  0
 47 54  1  0
 47 55  1  0
M  END
>  <i_m_Source_File_Index>  (9) 
9

>  <b_m_subgroup_collapsed>  (9) 
0

>  <r_exp_dg>  (9) 
-4.10471

>  <s_m_Source_File>  (9) 
galectin3_extra_ligands.sdf

>  <s_m_Source_Path>  (9) 
/efs/home/chaya/odyssey/projects/openfe-benchmark/Galectin

>  <s_m_entry_id>  (9) 
15

>  <s_m_entry_name>  (9) 
galectin3_extra_ligands.9

>  <s_m_subgroup_title>  (9) 
galectin3_extra_ligands

>  <s_m_subgroupid>  (9) 
galectin3_extra_ligands

>  <experimental dG reference units>  (9) 
kcal/mol

>  <experimental dG reference field>  (9) 
r_exp_dg

>  <kJ/mol experimental dG>  (9) 
-17.17410664

>  <kcal/mol experimental dG>  (9) 
-4.10471

>  <AmberAM1BCCCache>  (9) 
gASVcAQAAAAAAABdlCiMFm51bXB5Ll9jb3JlLm11bHRpYXJyYXmUjAZzY2FsYXKUk5SMBW51bXB5lIwFZHR5cGWUk5SMAmY4lImIh5RSlChLA4wBPJROTk5K/////0r/////SwB0lGJDCPlQPRzEawhAlIaUUpRoA2gJQwjwwGJX+EEQwJSGlFKUaANoCUMI0ajrtNm1AsCUhpRSlGgDaAlDCIqtbwyShQLAlIaUUpRoA2gJQwhTD5W08BjiP5SGlFKUaANoCUMIHaO7/HNJ4D+UhpRSlGgDaAlDCIba9LqcFPY/lIaUUpRoA2gJQwiqvnv345kcwJSGlFKUaANoCUMIsrTU/tmW9z+UhpRSlGgDaAlDCOCir6jnqhvAlIaUUpRoA2gJQwjIocSg+Ff4P5SGlFKUaANoCUMI+173f0v3+D+UhpRSlGgDaAlDCIGGl5uVzBzAlIaUUpRoA2gJQwhGxnsGSRYSwJSGlFKUaANoCUMIr5BzSeAm/z+UhpRSlGgDaAlDCLR/1SW2f/+/lIaUUpRoA2gJQwiRWf4yYN3Pv5SGlFKUaANoCUMIblcYck/a9L+UhpRSlGgDaAlDCGNNxASJS/e/lIaUUpRoA2gJQwjAlLadHmnqv5SGlFKUaANoCUMIY03EBIlL97+UhpRSlGgDaAlDCG5XGHJP2vS/lIaUUpRoA2gJQwiNyePToJwDQJSGlFKUaANoCUMIT2YuFTXs7D+UhpRSlGgDaAlDCIDnVhKVevE/lIaUUpRoA2gJQwiCFrfMJxMUQJSGlFKUaANoCUMI70kWCOMN7j+UhpRSlGgDaAlDCOLhdbKjIRRAlIaUUpRoA2gJQwgp9KZWz0PnP5SGlFKUaANoCUMIGTtjd5xv5D+UhpRSlGgDaAlDCBk7Y3ecb+Q/lIaUUpRoA2gJQwj89WYmc1QTQJSGlFKUaANoCUMIroJGIofK6z+UhpRSlGgDaAlDCHTGTOAP9/o/lIaUUpRoA2gJQwjq6apw9oz5P5SGlFKUaANoCUMI6umqcPaM+T+UhpRSlGgDaAlDCHTGTOAP9/o/lIaUUpRoA2gJQwiitChT+A3lv5SGlFKUaANoCUMIGA2rSfuU4T+UhpRSlGgDaAlDCBgNq0n7lOE/lIaUUpRoA2gJQwgYDatJ+5ThP5SGlFKUaANoCUMIhbJxss3B4z+UhpRSlGgDaAlDCAjuf/e5+ey/lIaUUpRoA2gJQwilcxo5FLvrv5SGlFKUaANoCUMI3qjwqjCx7b+UhpRSlGgDaAlDCN6o8Kowse2/lIaUUpRoA2gJQwilcxo5FLvrv5SGlFKUaANoCUMIRJpIpZuu4j+UhpRSlGgDaAlDCESaSKWbruI/lIaUUpRoA2gJQwi/FSXfg2zeP5SGlFKUaANoCUMIvxUl34Ns3j+UhpRSlGgDaAlDCL8VJd+DbN4/lIaUUpRoA2gJQwi/FSXfg2zeP5SGlFKUaANoCUMIRJpIpZuu4j+UhpRSlGgDaAlDCESaSKWbruI/lIaUUpRlLg==

$$$$
17q
     RDKit          3D

 49 52  0  0  1  0  0  0  0  0999 V2000
   14.3739   -8.3718   -0.5979 C   0  0  0  0  0  0  0  0  0  0  0  0
   14.3475   -8.0117   -1.8693 N   0  0  0  0  0  0  0  0  0  0  0  0
   15.6494   -7.8340   -2.2969 N   0  0  0  0  0  0  0  0  0  0  0  0
   15.6852   -8.4423   -0.1510 C   0  0  0  0  0  0  0  0  0  0  0  0
   16.4358   -8.0988   -1.2466 N   0  0  0  0  0  0  0  0  0  0  0  0
   17.8723   -7.9717   -1.4752 C   0  0  2  0  0  0  0  0  0  0  0  0
   18.6128   -9.2294   -0.9901 C   0  0  1  0  0  0  0  0  0  0  0  0
   18.2247  -10.3300   -1.7266 O   0  0  0  0  0  0  0  0  0  0  0  0
   18.4278   -6.7273   -0.7622 C   0  0  1  0  0  0  0  0  0  0  0  0
   18.0556   -6.7520    0.5655 O   0  0  0  0  0  0  0  0  0  0  0  0
   19.9644   -6.6641   -0.8562 C   0  0  1  0  0  0  0  0  0  0  0  0
   20.4848   -5.5093   -0.0527 C   0  0  0  0  0  0  0  0  0  0  0  0
   21.8221   -5.3181   -0.3349 O   0  0  0  0  0  0  0  0  0  0  0  0
   20.5330   -7.8771   -0.3539 O   0  0  0  0  0  0  0  0  0  0  0  0
   20.1408   -9.0499   -1.0735 C   0  0  1  0  0  0  0  0  0  0  0  0
   20.9643  -10.4642   -0.3736 S   0  0  0  0  0  0  0  0  0  0  0  0
   22.6578  -10.0777   -0.7625 C   0  0  0  0  0  0  0  0  0  0  0  0
   23.4416   -9.3885    0.1552 C   0  0  0  0  0  0  0  0  0  0  0  0
   24.7639   -9.0867   -0.1485 C   0  0  0  0  0  0  0  0  0  0  0  0
   25.3023   -9.4741   -1.3698 C   0  0  0  0  0  0  0  0  0  0  0  0
   24.5184  -10.1634   -2.2875 C   0  0  0  0  0  0  0  0  0  0  0  0
   23.1962  -10.4652   -1.9838 C   0  0  0  0  0  0  0  0  0  0  0  0
   16.1369   -8.6932    0.8002 H   0  0  0  0  0  0  0  0  0  0  0  0
   18.0004   -7.8640   -2.5546 H   0  0  0  0  0  0  0  0  0  0  0  0
   18.3358   -9.4422    0.0438 H   0  0  0  0  0  0  0  0  0  0  0  0
   18.4193  -10.2732   -2.7059 H   0  0  0  0  0  0  0  0  0  0  0  0
   17.9896   -5.8210   -1.1827 H   0  0  0  0  0  0  0  0  0  0  0  0
   17.4967   -5.9790    0.8645 H   0  0  0  0  0  0  0  0  0  0  0  0
   20.2855   -6.4938   -1.8862 H   0  0  0  0  0  0  0  0  0  0  0  0
   19.9271   -4.6083   -0.3081 H   0  0  0  0  0  0  0  0  0  0  0  0
   20.3645   -5.7222    1.0095 H   0  0  0  0  0  0  0  0  0  0  0  0
   22.2085   -5.9552   -1.0018 H   0  0  0  0  0  0  0  0  0  0  0  0
   20.4696   -8.9836   -2.1130 H   0  0  0  0  0  0  0  0  0  0  0  0
   23.0225   -9.0868    1.1060 H   0  0  0  0  0  0  0  0  0  0  0  0
   25.3742   -8.5500    0.5660 H   0  0  0  0  0  0  0  0  0  0  0  0
   24.9376  -10.4650   -3.2384 H   0  0  0  0  0  0  0  0  0  0  0  0
   22.5859  -11.0018   -2.6983 H   0  0  0  0  0  0  0  0  0  0  0  0
   26.7293   -9.1484   -1.6975 C   0  0  0  0  0  0  0  0  0  0  0  0
   26.9702   -9.5291   -2.6901 H   0  0  0  0  0  0  0  0  0  0  0  0
   27.3861   -9.6119   -0.9613 H   0  0  0  0  0  0  0  0  0  0  0  0
   26.8687   -8.0675   -1.6793 H   0  0  0  0  0  0  0  0  0  0  0  0
   13.1371   -8.6461    0.1500 C   0  0  0  0  0  0  0  0  0  0  0  0
   11.9390   -8.7707   -0.3854 N   0  0  0  0  0  0  0  0  0  0  0  0
   11.1154   -9.0081    0.6194 C   0  0  0  0  0  0  0  0  0  0  0  0
   11.7804   -9.0460    1.8378 C   0  0  0  0  0  0  0  0  0  0  0  0
   13.0914   -8.8110    1.5129 N   0  0  0  0  0  0  0  0  0  0  0  0
   11.4518   -9.2099    2.8581 H   0  0  0  0  0  0  0  0  0  0  0  0
   10.0556   -9.1490    0.4515 H   0  0  0  0  0  0  0  0  0  0  0  0
   13.8765   -8.7593    2.1447 H   0  0  0  0  0  0  0  0  0  0  0  0
  1  2  1  0
  1  4  2  0
  1 42  1  0
  2  3  2  0
  3  5  1  0
  4  5  1  0
  4 23  1  0
  5  6  1  0
  6  7  1  0
  6  9  1  0
  6 24  1  6
  7  8  1  0
  7 15  1  0
  7 25  1  1
  8 26  1  0
  9 10  1  0
  9 11  1  0
  9 27  1  6
 10 28  1  0
 11 12  1  0
 11 14  1  0
 11 29  1  6
 12 13  1  0
 12 30  1  0
 12 31  1  0
 13 32  1  0
 14 15  1  0
 15 16  1  0
 15 33  1  6
 16 17  1  0
 17 18  2  0
 17 22  1  0
 18 19  1  0
 18 34  1  0
 19 20  2  0
 19 35  1  0
 20 21  1  0
 20 38  1  0
 21 22  2  0
 21 36  1  0
 22 37  1  0
 38 39  1  0
 38 40  1  0
 38 41  1  0
 42 43  2  0
 42 46  1  0
 43 44  1  0
 44 45  2  0
 44 48  1  0
 45 46  1  0
 45 47  1  0
 46 49  1  0
M  END
>  <i_m_Source_File_Index>  (10) 
10

>  <b_m_subgroup_collapsed>  (10) 
0

>  <r_exp_dg>  (10) 
-4.98984

>  <s_m_Source_File>  (10) 
galectin3_extra_ligands.sdf

>  <s_m_Source_Path>  (10) 
/efs/home/chaya/odyssey/projects/openfe-benchmark/Galectin

>  <s_m_entry_id>  (10) 
16

>  <s_m_entry_name>  (10) 
galectin3_extra_ligands.10

>  <s_m_subgroup_title>  (10) 
galectin3_extra_ligands

>  <s_m_subgroupid>  (10) 
galectin3_extra_ligands

>  <experimental dG reference units>  (10) 
kcal/mol

>  <experimental dG reference field>  (10) 
r_exp_dg

>  <kJ/mol experimental dG>  (10) 
-20.877490560000002

>  <kcal/mol experimental dG>  (10) 
-4.98984

>  <AmberAM1BCCCache>  (10) 
gASV/gMAAAAAAABdlCiMFm51bXB5Ll9jb3JlLm11bHRpYXJyYXmUjAZzY2FsYXKUk5SMBW51bXB5lIwFZHR5cGWUk5SMAmY4lImIh5RSlChLA4wBPJROTk5K/////0r/////SwB0lGJDCLuKTNgdLgNAlIaUUpRoA2gJQwgI27lyiq8QwJSGlFKUaANoCUMIrqB99kzjAcCUhpRSlGgDaAlDCP0ETcVj7vm/lIaUUpRoA2gJQwgDF49JWUviP5SGlFKUaANoCUMIeg2FU7vC3z+UhpRSlGgDaAlDCCB179DISvY/lIaUUpRoA2gJQwjA5X0DsYIcwJSGlFKUaANoCUMIwljXw3Zs9z+UhpRSlGgDaAlDCGX9EblKkRvAlIaUUpRoA2gJQwgdQUMO3V34P5SGlFKUaANoCUMIT/517S/9+D+UhpRSlGgDaAlDCKneN4AcyxzAlIaUUpRoA2gJQwhxHhzrzxQSwJSGlFKUaANoCUMIeTn6ZTXM/j+UhpRSlGgDaAlDCI7u4r766P6/lIaUUpRoA2gJQwiInHQFPZjQv5SGlFKUaANoCUMI5e27NN259L+UhpRSlGgDaAlDCA+uRZekRfe/lIaUUpRoA2gJQwhL9j49vhnqv5SGlFKUaANoCUMID65Fl6RF97+UhpRSlGgDaAlDCOXtuzTdufS/lIaUUpRoA2gJQwhM7DzLO2oFQJSGlFKUaANoCUMIJX8LNDt67j+UhpRSlGgDaAlDCNWG1X95gPE/lIaUUpRoA2gJQwiKiPS3Li8UQJSGlFKUaANoCUMImogT46sZ7j+UhpRSlGgDaAlDCOeKtuMKFxRAlIaUUpRoA2gJQwjVMqQxmE/nP5SGlFKUaANoCUMIfX7kqR1L5D+UhpRSlGgDaAlDCH1+5KkdS+Q/lIaUUpRoA2gJQwjRncZB7FUTQJSGlFKUaANoCUMI5Lc7Tt827D+UhpRSlGgDaAlDCCZojXnQ5Po/lIaUUpRoA2gJQwhBiSne2pL5P5SGlFKUaANoCUMIQYkp3tqS+T+UhpRSlGgDaAlDCCZojXnQ5Po/lIaUUpRoA2gJQwiCbCPJvmLlv5SGlFKUaANoCUMIsMAcczKn4T+UhpRSlGgDaAlDCLDAHHMyp+E/lIaUUpRoA2gJQwiwwBxzMqfhP5SGlFKUaANoCUMI30EV3cnlEUCUhpRSlGgDaAlDCMFtIwoqQR/AlIaUUpRoA2gJQwgc7vvRBHgLQJSGlFKUaANoCUMIJWl3i9kvCMCUhpRSlGgDaAlDCHN+kq7ZawvAlIaUUpRoA2gJQwglYF8rYMsAQJSGlFKUaANoCUMI+3GDMAvW3z+UhpRSlGgDaAlDCIy2rM1Orw1AlIaUUpRlLg==

$$$$
17r
     RDKit          3D

 49 52  0  0  1  0  0  0  0  0999 V2000
   14.3747   -8.3717   -0.5980 C   0  0  0  0  0  0  0  0  0  0  0  0
   14.3472   -8.0118   -1.8690 N   0  0  0  0  0  0  0  0  0  0  0  0
   15.6492   -7.8339   -2.2973 N   0  0  0  0  0  0  0  0  0  0  0  0
   15.6851   -8.4422   -0.1512 C   0  0  0  0  0  0  0  0  0  0  0  0
   16.4367   -8.0990   -1.2456 N   0  0  0  0  0  0  0  0  0  0  0  0
   17.8723   -7.9717   -1.4752 C   0  0  2  0  0  0  0  0  0  0  0  0
   18.6128   -9.2294   -0.9901 C   0  0  1  0  0  0  0  0  0  0  0  0
   18.2247  -10.3300   -1.7266 O   0  0  0  0  0  0  0  0  0  0  0  0
   18.4278   -6.7273   -0.7622 C   0  0  1  0  0  0  0  0  0  0  0  0
   18.0580   -6.7518    0.5668 O   0  0  0  0  0  0  0  0  0  0  0  0
   19.9644   -6.6641   -0.8562 C   0  0  1  0  0  0  0  0  0  0  0  0
   20.4848   -5.5093   -0.0527 C   0  0  0  0  0  0  0  0  0  0  0  0
   21.8221   -5.3181   -0.3349 O   0  0  0  0  0  0  0  0  0  0  0  0
   20.5330   -7.8771   -0.3539 O   0  0  0  0  0  0  0  0  0  0  0  0
   20.1408   -9.0499   -1.0735 C   0  0  1  0  0  0  0  0  0  0  0  0
   20.9643  -10.4642   -0.3736 S   0  0  0  0  0  0  0  0  0  0  0  0
   22.6578  -10.0777   -0.7625 C   0  0  0  0  0  0  0  0  0  0  0  0
   23.4416   -9.3885    0.1552 C   0  0  0  0  0  0  0  0  0  0  0  0
   24.7639   -9.0867   -0.1485 C   0  0  0  0  0  0  0  0  0  0  0  0
   25.3023   -9.4741   -1.3698 C   0  0  0  0  0  0  0  0  0  0  0  0
   24.5184  -10.1634   -2.2875 C   0  0  0  0  0  0  0  0  0  0  0  0
   23.1962  -10.4652   -1.9838 C   0  0  0  0  0  0  0  0  0  0  0  0
   16.1371   -8.6932    0.8004 H   0  0  0  0  0  0  0  0  0  0  0  0
   18.0004   -7.8640   -2.5546 H   0  0  0  0  0  0  0  0  0  0  0  0
   18.3357   -9.4422    0.0438 H   0  0  0  0  0  0  0  0  0  0  0  0
   18.4193  -10.2732   -2.7059 H   0  0  0  0  0  0  0  0  0  0  0  0
   17.9896   -5.8210   -1.1827 H   0  0  0  0  0  0  0  0  0  0  0  0
   17.4967   -5.9790    0.8645 H   0  0  0  0  0  0  0  0  0  0  0  0
   20.2855   -6.4938   -1.8862 H   0  0  0  0  0  0  0  0  0  0  0  0
   19.9271   -4.6083   -0.3081 H   0  0  0  0  0  0  0  0  0  0  0  0
   20.3645   -5.7222    1.0095 H   0  0  0  0  0  0  0  0  0  0  0  0
   22.2085   -5.9552   -1.0018 H   0  0  0  0  0  0  0  0  0  0  0  0
   20.4696   -8.9836   -2.1130 H   0  0  0  0  0  0  0  0  0  0  0  0
   23.0225   -9.0868    1.1060 H   0  0  0  0  0  0  0  0  0  0  0  0
   25.3742   -8.5500    0.5660 H   0  0  0  0  0  0  0  0  0  0  0  0
   24.9376  -10.4650   -3.2384 H   0  0  0  0  0  0  0  0  0  0  0  0
   22.5859  -11.0018   -2.6983 H   0  0  0  0  0  0  0  0  0  0  0  0
   26.7293   -9.1484   -1.6975 C   0  0  0  0  0  0  0  0  0  0  0  0
   26.9702   -9.5291   -2.6901 H   0  0  0  0  0  0  0  0  0  0  0  0
   27.3861   -9.6119   -0.9613 H   0  0  0  0  0  0  0  0  0  0  0  0
   26.8687   -8.0675   -1.6793 H   0  0  0  0  0  0  0  0  0  0  0  0
   13.1279   -8.6556    0.2341 C   0  0  0  0  0  0  0  0  0  0  0  0
   11.9165   -8.7844   -0.2794 N   0  0  0  0  0  0  0  0  0  0  0  0
   11.0649   -9.0234    0.6937 C   0  0  0  0  0  0  0  0  0  0  0  0
   11.6956   -9.0629    1.9079 N   0  0  0  0  0  0  0  0  0  0  0  0
   13.0297   -8.8256    1.6086 C   0  0  0  0  0  0  0  0  0  0  0  0
   10.0533   -9.1528    0.4608 H   0  0  0  0  0  0  0  0  0  0  0  0
   11.2444   -9.2312    2.7962 H   0  0  0  0  0  0  0  0  0  0  0  0
   13.9446   -8.7474    2.1745 H   0  0  0  0  0  0  0  0  0  0  0  0
  1  2  1  0
  1  4  2  0
  1 42  1  0
  2  3  2  0
  3  5  1  0
  4  5  1  0
  4 23  1  0
  5  6  1  0
  6  7  1  0
  6  9  1  0
  6 24  1  6
  7  8  1  0
  7 15  1  0
  7 25  1  1
  8 26  1  0
  9 10  1  0
  9 11  1  0
  9 27  1  6
 10 28  1  0
 11 12  1  0
 11 14  1  0
 11 29  1  6
 12 13  1  0
 12 30  1  0
 12 31  1  0
 13 32  1  0
 14 15  1  0
 15 16  1  0
 15 33  1  6
 16 17  1  0
 17 18  2  0
 17 22  1  0
 18 19  1  0
 18 34  1  0
 19 20  2  0
 19 35  1  0
 20 21  1  0
 20 38  1  0
 21 22  2  0
 21 36  1  0
 22 37  1  0
 38 39  1  0
 38 40  1  0
 38 41  1  0
 42 43  1  0
 42 46  2  0
 43 44  2  0
 44 45  1  0
 44 47  1  0
 45 46  1  0
 45 48  1  0
 46 49  1  0
M  END
>  <i_m_Source_File_Index>  (11) 
11

>  <b_m_subgroup_collapsed>  (11) 
0

>  <r_exp_dg>  (11) 
-4.74961

>  <s_m_Source_File>  (11) 
galectin3_extra_ligands.sdf

>  <s_m_Source_Path>  (11) 
/efs/home/chaya/odyssey/projects/openfe-benchmark/Galectin

>  <s_m_entry_id>  (11) 
17

>  <s_m_entry_name>  (11) 
galectin3_extra_ligands.11

>  <s_m_subgroup_title>  (11) 
galectin3_extra_ligands

>  <s_m_subgroupid>  (11) 
galectin3_extra_ligands

>  <experimental dG reference units>  (11) 
kcal/mol

>  <experimental dG reference field>  (11) 
r_exp_dg

>  <kJ/mol experimental dG>  (11) 
-19.87236824

>  <kcal/mol experimental dG>  (11) 
-4.74961

>  <AmberAM1BCCCache>  (11) 
gASV/gMAAAAAAABdlCiMFm51bXB5Ll9jb3JlLm11bHRpYXJyYXmUjAZzY2FsYXKUk5SMBW51bXB5lIwFZHR5cGWUk5SMAmY4lImIh5RSlChLA4wBPJROTk5K/////0r/////SwB0lGJDCIdBuNsHoAVAlIaUUpRoA2gJQwjP5o6lDXQQwJSGlFKUaANoCUMIxZTJy2zWAsCUhpRSlGgDaAlDCLGvMP5GSP6/lIaUUpRoA2gJQwjqDS/aNcLgP5SGlFKUaANoCUMI5UQyIJab4D+UhpRSlGgDaAlDCGRisxIOF/Y/lIaUUpRoA2gJQwgr75AKWF8cwJSGlFKUaANoCUMISkEXrgNp9z+UhpRSlGgDaAlDCOYAwFJLqhvAlIaUUpRoA2gJQwjsJP+gsYr4P5SGlFKUaANoCUMI2Oa117z5+D+UhpRSlGgDaAlDCIfkp0X5yxzAlIaUUpRoA2gJQwggI6uaviESwJSGlFKUaANoCUMIjhgyoVEp/z+UhpRSlGgDaAlDCJD8miX9TP+/lIaUUpRoA2gJQwhuQCoxmEfOv5SGlFKUaANoCUMIogD48pft9L+UhpRSlGgDaAlDCIbFBa0XSfe/lIaUUpRoA2gJQwgKFzNie7Hqv5SGlFKUaANoCUMIhsUFrRdJ97+UhpRSlGgDaAlDCKIA+PKX7fS/lIaUUpRoA2gJQwgd8apyh78EQJSGlFKUaANoCUMIImObZjay7T+UhpRSlGgDaAlDCBh0mcG+TPE/lIaUUpRoA2gJQwgJhUYeLhYUQJSGlFKUaANoCUMIImObZjay7T+UhpRSlGgDaAlDCNuDZQhAIhRAlIaUUpRoA2gJQwjnAyQGskjnP5SGlFKUaANoCUMIj09kfjdE5D+UhpRSlGgDaAlDCI9PZH43ROQ/lIaUUpRoA2gJQwgimTeS/UgTQJSGlFKUaANoCUMIa5LD0WnP6z+UhpRSlGgDaAlDCFJOCziB+fo/lIaUUpRoA2gJQwgndCv0Q3f5P5SGlFKUaANoCUMIJ3Qr9EN3+T+UhpRSlGgDaAlDCFJOCziB+fo/lIaUUpRoA2gJQwjkpKujFQnlv5SGlFKUaANoCUMIIklWvySA4T+UhpRSlGgDaAlDCCJJVr8kgOE/lIaUUpRoA2gJQwgiSVa/JIDhP5SGlFKUaANoCUMIaNIZ05sOCkCUhpRSlGgDaAlDCCt3NhHRHR/AlIaUUpRoA2gJQwhzTa6ANTgSQJSGlFKUaANoCUMIKjxwlTGKDsCUhpRSlGgDaAlDCNDVaRjWUwTAlIaUUpRoA2gJQwhh1ihvwg7nP5SGlFKUaANoCUMIjsmme8NzDECUhpRSlGgDaAlDCFAz4zucGwJAlIaUUpRlLg==

$$$$
17n
     RDKit          3D

 49 52  0  0  1  0  0  0  0  0999 V2000
   14.3747   -8.3717   -0.5984 C   0  0  0  0  0  0  0  0  0  0  0  0
   14.3469   -8.0117   -1.8695 N   0  0  0  0  0  0  0  0  0  0  0  0
   15.6495   -7.8341   -2.2967 N   0  0  0  0  0  0  0  0  0  0  0  0
   15.6852   -8.4424   -0.1508 C   0  0  0  0  0  0  0  0  0  0  0  0
   16.4360   -8.0988   -1.2460 N   0  0  0  0  0  0  0  0  0  0  0  0
   17.8723   -7.9717   -1.4752 C   0  0  2  0  0  0  0  0  0  0  0  0
   18.6128   -9.2294   -0.9901 C   0  0  1  0  0  0  0  0  0  0  0  0
   18.2247  -10.3300   -1.7266 O   0  0  0  0  0  0  0  0  0  0  0  0
   18.4278   -6.7273   -0.7622 C   0  0  1  0  0  0  0  0  0  0  0  0
   18.0585   -6.7515    0.5671 O   0  0  0  0  0  0  0  0  0  0  0  0
   19.9644   -6.6641   -0.8562 C   0  0  1  0  0  0  0  0  0  0  0  0
   20.4848   -5.5093   -0.0527 C   0  0  0  0  0  0  0  0  0  0  0  0
   21.8221   -5.3181   -0.3349 O   0  0  0  0  0  0  0  0  0  0  0  0
   20.5330   -7.8771   -0.3539 O   0  0  0  0  0  0  0  0  0  0  0  0
   20.1408   -9.0499   -1.0735 C   0  0  1  0  0  0  0  0  0  0  0  0
   20.9643  -10.4642   -0.3736 S   0  0  0  0  0  0  0  0  0  0  0  0
   22.6578  -10.0777   -0.7625 C   0  0  0  0  0  0  0  0  0  0  0  0
   23.4416   -9.3885    0.1552 C   0  0  0  0  0  0  0  0  0  0  0  0
   24.7639   -9.0867   -0.1485 C   0  0  0  0  0  0  0  0  0  0  0  0
   25.3023   -9.4741   -1.3698 C   0  0  0  0  0  0  0  0  0  0  0  0
   24.5184  -10.1634   -2.2875 C   0  0  0  0  0  0  0  0  0  0  0  0
   23.1962  -10.4652   -1.9838 C   0  0  0  0  0  0  0  0  0  0  0  0
   16.1370   -8.6931    0.7999 H   0  0  0  0  0  0  0  0  0  0  0  0
   18.0004   -7.8640   -2.5546 H   0  0  0  0  0  0  0  0  0  0  0  0
   18.3359   -9.4423    0.0438 H   0  0  0  0  0  0  0  0  0  0  0  0
   18.4193  -10.2732   -2.7059 H   0  0  0  0  0  0  0  0  0  0  0  0
   17.9896   -5.8210   -1.1827 H   0  0  0  0  0  0  0  0  0  0  0  0
   17.4975   -5.9795    0.8644 H   0  0  0  0  0  0  0  0  0  0  0  0
   20.2855   -6.4938   -1.8862 H   0  0  0  0  0  0  0  0  0  0  0  0
   19.9271   -4.6083   -0.3081 H   0  0  0  0  0  0  0  0  0  0  0  0
   20.3645   -5.7222    1.0095 H   0  0  0  0  0  0  0  0  0  0  0  0
   22.2085   -5.9552   -1.0018 H   0  0  0  0  0  0  0  0  0  0  0  0
   20.4696   -8.9836   -2.1130 H   0  0  0  0  0  0  0  0  0  0  0  0
   23.0225   -9.0868    1.1060 H   0  0  0  0  0  0  0  0  0  0  0  0
   25.3742   -8.5500    0.5660 H   0  0  0  0  0  0  0  0  0  0  0  0
   24.9376  -10.4650   -3.2384 H   0  0  0  0  0  0  0  0  0  0  0  0
   22.5859  -11.0018   -2.6983 H   0  0  0  0  0  0  0  0  0  0  0  0
   26.7293   -9.1484   -1.6975 C   0  0  0  0  0  0  0  0  0  0  0  0
   26.9702   -9.5291   -2.6901 H   0  0  0  0  0  0  0  0  0  0  0  0
   27.3861   -9.6119   -0.9613 H   0  0  0  0  0  0  0  0  0  0  0  0
   26.8687   -8.0675   -1.6793 H   0  0  0  0  0  0  0  0  0  0  0  0
   13.1918   -8.6397    0.1625 C   0  0  0  0  0  0  0  0  0  0  0  0
   11.9125   -8.7734   -0.3728 C   0  0  0  0  0  0  0  0  0  0  0  0
   11.0728   -9.0228    0.6970 C   0  0  0  0  0  0  0  0  0  0  0  0
   11.7798   -9.0453    1.8622 O   0  0  0  0  0  0  0  0  0  0  0  0
   13.0683   -8.8111    1.5265 C   0  0  0  0  0  0  0  0  0  0  0  0
   13.7888   -8.7879    2.3255 H   0  0  0  0  0  0  0  0  0  0  0  0
   10.0061   -9.1932    0.7634 H   0  0  0  0  0  0  0  0  0  0  0  0
   11.6501   -8.6932   -1.4264 H   0  0  0  0  0  0  0  0  0  0  0  0
  1  2  1  0
  1  4  2  0
  1 42  1  0
  2  3  2  0
  3  5  1  0
  4  5  1  0
  4 23  1  0
  5  6  1  0
  6  7  1  0
  6  9  1  0
  6 24  1  6
  7  8  1  0
  7 15  1  0
  7 25  1  1
  8 26  1  0
  9 10  1  0
  9 11  1  0
  9 27  1  6
 10 28  1  0
 11 12  1  0
 11 14  1  0
 11 29  1  6
 12 13  1  0
 12 30  1  0
 12 31  1  0
 13 32  1  0
 14 15  1  0
 15 16  1  0
 15 33  1  6
 16 17  1  0
 17 18  2  0
 17 22  1  0
 18 19  1  0
 18 34  1  0
 19 20  2  0
 19 35  1  0
 20 21  1  0
 20 38  1  0
 21 22  2  0
 21 36  1  0
 22 37  1  0
 38 39  1  0
 38 40  1  0
 38 41  1  0
 42 43  1  0
 42 46  2  0
 43 44  2  0
 43 49  1  0
 44 45  1  0
 44 48  1  0
 45 46  1  0
 46 47  1  0
M  END
>  <i_m_Source_File_Index>  (12) 
12

>  <b_m_subgroup_collapsed>  (12) 
0

>  <r_exp_dg>  (12) 
-4.9141

>  <s_m_Source_File>  (12) 
galectin3_extra_ligands.sdf

>  <s_m_Source_Path>  (12) 
/efs/home/chaya/odyssey/projects/openfe-benchmark/Galectin

>  <s_m_entry_id>  (12) 
18

>  <s_m_entry_name>  (12) 
galectin3_extra_ligands.12

>  <s_m_subgroup_title>  (12) 
galectin3_extra_ligands

>  <s_m_subgroupid>  (12) 
galectin3_extra_ligands

>  <experimental dG reference units>  (12) 
kcal/mol

>  <experimental dG reference field>  (12) 
r_exp_dg

>  <kJ/mol experimental dG>  (12) 
-20.560594400000003

>  <kcal/mol experimental dG>  (12) 
-4.9141

>  <AmberAM1BCCCache>  (12) 
gASV/gMAAAAAAABdlCiMFm51bXB5Ll9jb3JlLm11bHRpYXJyYXmUjAZzY2FsYXKUk5SMBW51bXB5lIwFZHR5cGWUk5SMAmY4lImIh5RSlChLA4wBPJROTk5K/////0r/////SwB0lGJDCGlpV5+pMQ9AlIaUUpRoA2gJQwjLYG6E/TcQwJSGlFKUaANoCUMIms6xv2Yx/b+UhpRSlGgDaAlDCPjxCr5UQQLAlIaUUpRoA2gJQwiyIRvWZMTjP5SGlFKUaANoCUMIy2JNVVNs7T+UhpRSlGgDaAlDCBySyUzoFfY/lIaUUpRoA2gJQwg+fWFdF1YbwJSGlFKUaANoCUMIYo1F9S9G9j+UhpRSlGgDaAlDCA5iKmazaxzAlIaUUpRoA2gJQwj065XLloDyP5SGlFKUaANoCUMINi5gxzAH+D+UhpRSlGgDaAlDCIJR3DOuFB3AlIaUUpRoA2gJQwhgi1sxu5oSwJSGlFKUaANoCUMIL1tYOQ1n/j+UhpRSlGgDaAlDCE3WjJqT7f6/lIaUUpRoA2gJQwiuwnhgxlDOv5SGlFKUaANoCUMIfdIN1qXe9L+UhpRSlGgDaAlDCCuYsZ4ZMve/lIaUUpRoA2gJQwjIxZL07yLqv5SGlFKUaANoCUMIK5ixnhky97+UhpRSlGgDaAlDCH3SDdal3vS/lIaUUpRoA2gJQwi1J5DIIoUDQJSGlFKUaANoCUMIiHSHkGUu8z+UhpRSlGgDaAlDCKivt3wJce4/lIaUUpRoA2gJQwgPGBIwec0TQJSGlFKUaANoCUMIHbm/K3oQ7j+UhpRSlGgDaAlDCJoOCoEILhRAlIaUUpRoA2gJQwiKpYhDe6LkP5SGlFKUaANoCUMIjtk0BmeP4j+UhpRSlGgDaAlDCI7ZNAZnj+I/lIaUUpRoA2gJQwibG7VxQ6kTQJSGlFKUaANoCUMICMzPiVtP7T+UhpRSlGgDaAlDCCKFZ/Xvr/o/lIaUUpRoA2gJQwjfo0EuHnb5P5SGlFKUaANoCUMI36NBLh52+T+UhpRSlGgDaAlDCCKFZ/Xvr/o/lIaUUpRoA2gJQwj/O3eA8Gvlv5SGlFKUaANoCUMI0zkPRCi+4T+UhpRSlGgDaAlDCNM5D0QovuE/lIaUUpRoA2gJQwjTOQ9EKL7hP5SGlFKUaANoCUMI5C68Cp7zBcCUhpRSlGgDaAlDCCk346MgnwXAlIaUUpRoA2gJQwgrxuhuR14FQJSGlFKUaANoCUMIl3w60/kmEcCUhpRSlGgDaAlDCMyp0GH1fwZAlIaUUpRoA2gJQwjuip0KbafjP5SGlFKUaANoCUMIeYGVW/wH5D+UhpRSlGgDaAlDCKJuTOnvsABAlIaUUpRlLg==

$$$$
17p
     RDKit          3D

 49 52  0  0  1  0  0  0  0  0999 V2000
   14.3746   -8.3717   -0.5983 C   0  0  0  0  0  0  0  0  0  0  0  0
   14.3470   -8.0117   -1.8695 N   0  0  0  0  0  0  0  0  0  0  0  0
   15.6495   -7.8341   -2.2967 N   0  0  0  0  0  0  0  0  0  0  0  0
   15.6853   -8.4424   -0.1509 C   0  0  0  0  0  0  0  0  0  0  0  0
   16.4358   -8.0988   -1.2462 N   0  0  0  0  0  0  0  0  0  0  0  0
   17.8723   -7.9717   -1.4752 C   0  0  2  0  0  0  0  0  0  0  0  0
   18.6128   -9.2294   -0.9901 C   0  0  1  0  0  0  0  0  0  0  0  0
   18.2247  -10.3300   -1.7266 O   0  0  0  0  0  0  0  0  0  0  0  0
   18.4278   -6.7273   -0.7622 C   0  0  1  0  0  0  0  0  0  0  0  0
   18.0579   -6.7515    0.5667 O   0  0  0  0  0  0  0  0  0  0  0  0
   19.9644   -6.6641   -0.8562 C   0  0  1  0  0  0  0  0  0  0  0  0
   20.4848   -5.5093   -0.0527 C   0  0  0  0  0  0  0  0  0  0  0  0
   21.8221   -5.3181   -0.3349 O   0  0  0  0  0  0  0  0  0  0  0  0
   20.5330   -7.8771   -0.3539 O   0  0  0  0  0  0  0  0  0  0  0  0
   20.1408   -9.0499   -1.0735 C   0  0  1  0  0  0  0  0  0  0  0  0
   20.9643  -10.4642   -0.3736 S   0  0  0  0  0  0  0  0  0  0  0  0
   22.6578  -10.0777   -0.7625 C   0  0  0  0  0  0  0  0  0  0  0  0
   23.4416   -9.3885    0.1552 C   0  0  0  0  0  0  0  0  0  0  0  0
   24.7639   -9.0867   -0.1485 C   0  0  0  0  0  0  0  0  0  0  0  0
   25.3023   -9.4741   -1.3698 C   0  0  0  0  0  0  0  0  0  0  0  0
   24.5184  -10.1634   -2.2875 C   0  0  0  0  0  0  0  0  0  0  0  0
   23.1962  -10.4652   -1.9838 C   0  0  0  0  0  0  0  0  0  0  0  0
   16.1370   -8.6931    0.7999 H   0  0  0  0  0  0  0  0  0  0  0  0
   18.0004   -7.8640   -2.5546 H   0  0  0  0  0  0  0  0  0  0  0  0
   18.3359   -9.4423    0.0438 H   0  0  0  0  0  0  0  0  0  0  0  0
   18.4193  -10.2732   -2.7059 H   0  0  0  0  0  0  0  0  0  0  0  0
   17.9896   -5.8210   -1.1827 H   0  0  0  0  0  0  0  0  0  0  0  0
   17.4975   -5.9795    0.8644 H   0  0  0  0  0  0  0  0  0  0  0  0
   20.2855   -6.4938   -1.8862 H   0  0  0  0  0  0  0  0  0  0  0  0
   19.9271   -4.6083   -0.3081 H   0  0  0  0  0  0  0  0  0  0  0  0
   20.3645   -5.7222    1.0095 H   0  0  0  0  0  0  0  0  0  0  0  0
   22.2085   -5.9552   -1.0018 H   0  0  0  0  0  0  0  0  0  0  0  0
   20.4696   -8.9836   -2.1130 H   0  0  0  0  0  0  0  0  0  0  0  0
   23.0225   -9.0868    1.1060 H   0  0  0  0  0  0  0  0  0  0  0  0
   25.3742   -8.5500    0.5660 H   0  0  0  0  0  0  0  0  0  0  0  0
   24.9376  -10.4650   -3.2384 H   0  0  0  0  0  0  0  0  0  0  0  0
   22.5859  -11.0018   -2.6983 H   0  0  0  0  0  0  0  0  0  0  0  0
   26.7293   -9.1484   -1.6975 C   0  0  0  0  0  0  0  0  0  0  0  0
   26.9702   -9.5291   -2.6901 H   0  0  0  0  0  0  0  0  0  0  0  0
   27.3861   -9.6119   -0.9613 H   0  0  0  0  0  0  0  0  0  0  0  0
   26.8687   -8.0675   -1.6793 H   0  0  0  0  0  0  0  0  0  0  0  0
   13.1805   -8.6432    0.1829 C   0  0  0  0  0  0  0  0  0  0  0  0
   11.8865   -8.7794   -0.3391 C   0  0  0  0  0  0  0  0  0  0  0  0
   10.9277   -9.0376    0.6337 C   0  0  0  0  0  0  0  0  0  0  0  0
   11.6064   -9.1131    2.2257 S   0  0  0  0  0  0  0  0  0  0  0  0
   13.1778   -8.7986    1.5688 C   0  0  0  0  0  0  0  0  0  0  0  0
   14.0255   -8.7400    2.2318 H   0  0  0  0  0  0  0  0  0  0  0  0
    9.8670   -9.1836    0.4900 H   0  0  0  0  0  0  0  0  0  0  0  0
   11.6773   -8.6901   -1.3963 H   0  0  0  0  0  0  0  0  0  0  0  0
  1  2  1  0
  1  4  2  0
  1 42  1  0
  2  3  2  0
  3  5  1  0
  4  5  1  0
  4 23  1  0
  5  6  1  0
  6  7  1  0
  6  9  1  0
  6 24  1  6
  7  8  1  0
  7 15  1  0
  7 25  1  1
  8 26  1  0
  9 10  1  0
  9 11  1  0
  9 27  1  6
 10 28  1  0
 11 12  1  0
 11 14  1  0
 11 29  1  6
 12 13  1  0
 12 30  1  0
 12 31  1  0
 13 32  1  0
 14 15  1  0
 15 16  1  0
 15 33  1  6
 16 17  1  0
 17 18  2  0
 17 22  1  0
 18 19  1  0
 18 34  1  0
 19 20  2  0
 19 35  1  0
 20 21  1  0
 20 38  1  0
 21 22  2  0
 21 36  1  0
 22 37  1  0
 38 39  1  0
 38 40  1  0
 38 41  1  0
 42 43  1  0
 42 46  2  0
 43 44  2  0
 43 49  1  0
 44 45  1  0
 44 48  1  0
 45 46  1  0
 46 47  1  0
M  END
>  <i_m_Source_File_Index>  (13) 
13

>  <b_m_subgroup_collapsed>  (13) 
0

>  <r_exp_dg>  (13) 
-5.04631

>  <s_m_Source_File>  (13) 
galectin3_extra_ligands.sdf

>  <s_m_Source_Path>  (13) 
/efs/home/chaya/odyssey/projects/openfe-benchmark/Galectin

>  <s_m_entry_id>  (13) 
19

>  <s_m_entry_name>  (13) 
galectin3_extra_ligands.13

>  <s_m_subgroup_title>  (13) 
galectin3_extra_ligands

>  <s_m_subgroupid>  (13) 
galectin3_extra_ligands

>  <experimental dG reference units>  (13) 
kcal/mol

>  <experimental dG reference field>  (13) 
r_exp_dg

>  <kJ/mol experimental dG>  (13) 
-21.11376104

>  <kcal/mol experimental dG>  (13) 
-5.04631

>  <AmberAM1BCCCache>  (13) 
gASV/gMAAAAAAABdlCiMFm51bXB5Ll9jb3JlLm11bHRpYXJyYXmUjAZzY2FsYXKUk5SMBW51bXB5lIwFZHR5cGWUk5SMAmY4lImIh5RSlChLA4wBPJROTk5K/////0r/////SwB0lGJDCD9bIJvSoA5AlIaUUpRoA2gJQwiZ7A1eIVAQwJSGlFKUaANoCUMI2P0vJvaR/b+UhpRSlGgDaAlDCCMamKOhyAHAlIaUUpRoA2gJQwjBuRZa1WPjP5SGlFKUaANoCUMI8ec4e+LM7T+UhpRSlGgDaAlDCGlZQzfoFfY/lIaUUpRoA2gJQwhqC8NiF1YbwJSGlFKUaANoCUMIr1S/3y9G9j+UhpRSlGgDaAlDCGnxbIGhXxzAlIaUUpRoA2gJQwiHrote3rDyP5SGlFKUaANoCUMIgvXZsTAH+D+UhpRSlGgDaAlDCK7fPTmuFB3AlIaUUpRoA2gJQwiNGb02u5oSwJSGlFKUaANoCUMIwR1OzFSX/j+UhpRSlGgDaAlDCEYKj1jbHf+/lIaUUpRoA2gJQwhDiKoMx1DOv5SGlFKUaANoCUMIPwemouEG9b+UhpRSlGgDaAlDCN7QN7QZMve/lIaUUpRoA2gJQwguN58f8CLqv5SGlFKUaANoCUMI3tA3tBky97+UhpRSlGgDaAlDCD8HpqLhBvW/lIaUUpRoA2gJQwhbC829IoUDQJSGlFKUaANoCUMI1TsBe2Uu8z+UhpRSlGgDaAlDCM40o6KY0e4/lIaUUpRoA2gJQwgRi5FAZ8ETQJSGlFKUaANoCUMIuEezAHoQ7j+UhpRSlGgDaAlDCJyBiZH2IRRAlIaUUpRoA2gJQwglNHwYe6LkP5SGlFKUaANoCUMIKWgo22aP4j+UhpRSlGgDaAlDCCloKNtmj+I/lIaUUpRoA2gJQwidjjSCMZ0TQJSGlFKUaANoCUMIo1rDXltP7T+UhpRSlGgDaAlDCG5M4d/vr/o/lIaUUpRoA2gJQwgsa7sYHnb5P5SGlFKUaANoCUMILGu7GB52+T+UhpRSlGgDaAlDCG5M4d/vr/o/lIaUUpRoA2gJQwjZtotaYQvlv5SGlFKUaANoCUMI41rrQHCz4T+UhpRSlGgDaAlDCONa60Bws+E/lIaUUpRoA2gJQwjjWutAcLPhP5SGlFKUaANoCUMIDMVt2cyq97+UhpRSlGgDaAlDCA3fw7pCofa/lIaUUpRoA2gJQwixN5HG4ZoAwJSGlFKUaANoCUMIJVum8PL1yT+UhpRSlGgDaAlDCPcyDW8pywDAlIaUUpRoA2gJQwghz7bQWq//P5SGlFKUaANoCUMIeWAV5RggAECUhpRSlGgDaAlDCHlgFeUYIABAlIaUUpRlLg==

$$$$
17o
     RDKit          3D

 49 52  0  0  1  0  0  0  0  0999 V2000
   14.3746   -8.3717   -0.5981 C   0  0  0  0  0  0  0  0  0  0  0  0
   14.3470   -8.0117   -1.8695 N   0  0  0  0  0  0  0  0  0  0  0  0
   15.6495   -7.8341   -2.2967 N   0  0  0  0  0  0  0  0  0  0  0  0
   15.6854   -8.4424   -0.1509 C   0  0  0  0  0  0  0  0  0  0  0  0
   16.4357   -8.0988   -1.2465 N   0  0  0  0  0  0  0  0  0  0  0  0
   17.8723   -7.9717   -1.4752 C   0  0  2  0  0  0  0  0  0  0  0  0
   18.6128   -9.2294   -0.9901 C   0  0  1  0  0  0  0  0  0  0  0  0
   18.2247  -10.3300   -1.7266 O   0  0  0  0  0  0  0  0  0  0  0  0
   18.4278   -6.7273   -0.7622 C   0  0  1  0  0  0  0  0  0  0  0  0
   18.0579   -6.7515    0.5667 O   0  0  0  0  0  0  0  0  0  0  0  0
   19.9644   -6.6641   -0.8562 C   0  0  1  0  0  0  0  0  0  0  0  0
   20.4848   -5.5093   -0.0527 C   0  0  0  0  0  0  0  0  0  0  0  0
   21.8221   -5.3181   -0.3349 O   0  0  0  0  0  0  0  0  0  0  0  0
   20.5330   -7.8771   -0.3539 O   0  0  0  0  0  0  0  0  0  0  0  0
   20.1408   -9.0499   -1.0735 C   0  0  1  0  0  0  0  0  0  0  0  0
   20.9643  -10.4642   -0.3736 S   0  0  0  0  0  0  0  0  0  0  0  0
   22.6578  -10.0777   -0.7625 C   0  0  0  0  0  0  0  0  0  0  0  0
   23.4416   -9.3885    0.1552 C   0  0  0  0  0  0  0  0  0  0  0  0
   24.7639   -9.0867   -0.1485 C   0  0  0  0  0  0  0  0  0  0  0  0
   25.3023   -9.4741   -1.3698 C   0  0  0  0  0  0  0  0  0  0  0  0
   24.5184  -10.1634   -2.2875 C   0  0  0  0  0  0  0  0  0  0  0  0
   23.1962  -10.4652   -1.9838 C   0  0  0  0  0  0  0  0  0  0  0  0
   16.1369   -8.6931    0.7999 H   0  0  0  0  0  0  0  0  0  0  0  0
   18.0004   -7.8640   -2.5546 H   0  0  0  0  0  0  0  0  0  0  0  0
   18.3359   -9.4423    0.0438 H   0  0  0  0  0  0  0  0  0  0  0  0
   18.4193  -10.2732   -2.7059 H   0  0  0  0  0  0  0  0  0  0  0  0
   17.9896   -5.8210   -1.1827 H   0  0  0  0  0  0  0  0  0  0  0  0
   17.4975   -5.9795    0.8644 H   0  0  0  0  0  0  0  0  0  0  0  0
   20.2855   -6.4938   -1.8862 H   0  0  0  0  0  0  0  0  0  0  0  0
   19.9271   -4.6083   -0.3081 H   0  0  0  0  0  0  0  0  0  0  0  0
   20.3645   -5.7222    1.0095 H   0  0  0  0  0  0  0  0  0  0  0  0
   22.2085   -5.9552   -1.0018 H   0  0  0  0  0  0  0  0  0  0  0  0
   20.4696   -8.9836   -2.1130 H   0  0  0  0  0  0  0  0  0  0  0  0
   23.0225   -9.0868    1.1060 H   0  0  0  0  0  0  0  0  0  0  0  0
   25.3742   -8.5500    0.5660 H   0  0  0  0  0  0  0  0  0  0  0  0
   24.9376  -10.4650   -3.2384 H   0  0  0  0  0  0  0  0  0  0  0  0
   22.5859  -11.0018   -2.6983 H   0  0  0  0  0  0  0  0  0  0  0  0
   26.7293   -9.1484   -1.6975 C   0  0  0  0  0  0  0  0  0  0  0  0
   26.9702   -9.5291   -2.6901 H   0  0  0  0  0  0  0  0  0  0  0  0
   27.3861   -9.6119   -0.9613 H   0  0  0  0  0  0  0  0  0  0  0  0
   26.8687   -8.0675   -1.6793 H   0  0  0  0  0  0  0  0  0  0  0  0
   13.1677   -8.6436    0.1630 C   0  0  0  0  0  0  0  0  0  0  0  0
   11.8660   -8.7820   -0.3143 C   0  0  0  0  0  0  0  0  0  0  0  0
   10.9270   -9.0422    0.6896 C   0  0  0  0  0  0  0  0  0  0  0  0
   11.5011   -9.0995    1.9503 C   0  0  0  0  0  0  0  0  0  0  0  0
   13.2117   -8.8330    1.8953 S   0  0  0  0  0  0  0  0  0  0  0  0
   11.6205   -8.6955   -1.3640 H   0  0  0  0  0  0  0  0  0  0  0  0
   11.0149   -9.2807    2.8978 H   0  0  0  0  0  0  0  0  0  0  0  0
    9.8719   -9.1802    0.4974 H   0  0  0  0  0  0  0  0  0  0  0  0
  1  2  1  0
  1  4  2  0
  1 42  1  0
  2  3  2  0
  3  5  1  0
  4  5  1  0
  4 23  1  0
  5  6  1  0
  6  7  1  0
  6  9  1  0
  6 24  1  6
  7  8  1  0
  7 15  1  0
  7 25  1  1
  8 26  1  0
  9 10  1  0
  9 11  1  0
  9 27  1  6
 10 28  1  0
 11 12  1  0
 11 14  1  0
 11 29  1  6
 12 13  1  0
 12 30  1  0
 12 31  1  0
 13 32  1  0
 14 15  1  0
 15 16  1  0
 15 33  1  6
 16 17  1  0
 17 18  2  0
 17 22  1  0
 18 19  1  0
 18 34  1  0
 19 20  2  0
 19 35  1  0
 20 21  1  0
 20 38  1  0
 21 22  2  0
 21 36  1  0
 22 37  1  0
 38 39  1  0
 38 40  1  0
 38 41  1  0
 42 43  2  0
 42 46  1  0
 43 44  1  0
 43 47  1  0
 44 45  2  0
 44 49  1  0
 45 46  1  0
 45 48  1  0
M  END
>  <i_m_Source_File_Index>  (14) 
14

>  <b_m_subgroup_collapsed>  (14) 
0

>  <r_exp_dg>  (14) 
-5.10873

>  <s_m_Source_File>  (14) 
galectin3_extra_ligands.sdf

>  <s_m_Source_Path>  (14) 
/efs/home/chaya/odyssey/projects/openfe-benchmark/Galectin

>  <s_m_entry_id>  (14) 
20

>  <s_m_entry_name>  (14) 
galectin3_extra_ligands.14

>  <s_m_subgroup_title>  (14) 
galectin3_extra_ligands

>  <s_m_subgroupid>  (14) 
galectin3_extra_ligands

>  <experimental dG reference units>  (14) 
kcal/mol

>  <experimental dG reference field>  (14) 
r_exp_dg

>  <kJ/mol experimental dG>  (14) 
-21.374926320000004

>  <kcal/mol experimental dG>  (14) 
-5.10873

>  <AmberAM1BCCCache>  (14) 
gASV/gMAAAAAAABdlCiMFm51bXB5Ll9jb3JlLm11bHRpYXJyYXmUjAZzY2FsYXKUk5SMBW51bXB5lIwFZHR5cGWUk5SMAmY4lImIh5RSlChLA4wBPJROTk5K/////0r/////SwB0lGJDCOr2WmuEYg9AlIaUUpRoA2gJQwhonC5KbAcQwJSGlFKUaANoCUMIa6UeIYhg/b+UhpRSlGgDaAlDCEhWe+tQoQLAlIaUUpRoA2gJQwg9TiFXX+jkP5SGlFKUaANoCUMItqtr459u7T+UhpRSlGgDaAlDCJG22JMOF/Y/lIaUUpRoA2gJQwghtJ3LzVUbwJSGlFKUaANoCUMI17FUPFZH9j+UhpRSlGgDaAlDCPGYZtRpaxzAlIaUUpRoA2gJQwiuCyG7BLLyP5SGlFKUaANoCUMIqlJvDlcI+D+UhpRSlGgDaAlDCGSIGKJkFB3AlIaUUpRoA2gJQwhDwpefcZoSwJSGlFKUaANoCUMIpH9ngDNo/j+UhpRSlGgDaAlDCNixfVNt7P6/lIaUUpRoA2gJQwgDn/8nlEfOv5SGlFKUaANoCUMIo62zh4Xh9L+UhpRSlGgDaAlDCLZzolfzMPe/lIaUUpRoA2gJQwjefHRmoyDqv5SGlFKUaANoCUMItnOiV/Mw97+UhpRSlGgDaAlDCKOts4eF4fS/lIaUUpRoA2gJQwgGtLJ+D8IDQJSGlFKUaANoCUMIoJbUq69H8z+UhpRSlGgDaAlDCB7vzVvl0+4/lIaUUpRoA2gJQwgt4dXBws0TQJSGlFKUaANoCUMICALeucYS7j+UhpRSlGgDaAlDCLjXzRJSLhRAlIaUUpRoA2gJQwh17qbRx6TkP5SGlFKUaANoCUMIeSJTlLOR4j+UhpRSlGgDaAlDCHkiU5SzkeI/lIaUUpRoA2gJQwi45HgDjakTQJSGlFKUaANoCUMI8xTuF6hR7T+UhpRSlGgDaAlDCJapdjwWsfo/lIaUUpRoA2gJQwhUyFB1RHf5P5SGlFKUaANoCUMIVMhQdUR3+T+UhpRSlGgDaAlDCJapdjwWsfo/lIaUUpRoA2gJQwgV81jyo2nlv5SGlFKUaANoCUMIvoIt0nTA4T+UhpRSlGgDaAlDCL6CLdJ0wOE/lIaUUpRoA2gJQwi+gi3SdMDhP5SGlFKUaANoCUMI7hMo0lvt9r+UhpRSlGgDaAlDCJ1SBvPogvi/lIaUUpRoA2gJQwis150PMGr9v5SGlFKUaANoCUMIg0G1m9BR/7+UhpRSlGgDaAlDCB2rloe2aLG/lIaUUpRoA2gJQwiPJ8jVyOD/P5SGlFKUaANoCUMIjyfI1cjg/z+UhpRSlGgDaAlDCDZzCE5O3Pw/lIaUUpRlLg==

$$$$
17f
     RDKit          3D

 52 55  0  0  1  0  0  0  0  0999 V2000
   10.8011   -9.2877    0.2796 C   0  0  0  0  0  0  0  0  0  0  0  0
   11.9594   -9.0271   -0.4571 C   0  0  0  0  0  0  0  0  0  0  0  0
   10.8214   -9.1701    1.6720 C   0  0  0  0  0  0  0  0  0  0  0  0
   11.9975   -8.7929    2.3259 C   0  0  0  0  0  0  0  0  0  0  0  0
   13.1528   -8.5335    1.5842 C   0  0  0  0  0  0  0  0  0  0  0  0
   13.1326   -8.6508    0.1952 C   0  0  0  0  0  0  0  0  0  0  0  0
   14.3746   -8.3717   -0.5984 C   0  0  0  0  0  0  0  0  0  0  0  0
   14.3469   -8.0117   -1.8695 N   0  0  0  0  0  0  0  0  0  0  0  0
   15.6495   -7.8341   -2.2967 N   0  0  0  0  0  0  0  0  0  0  0  0
   15.6852   -8.4424   -0.1508 C   0  0  0  0  0  0  0  0  0  0  0  0
   16.4360   -8.0988   -1.2459 N   0  0  0  0  0  0  0  0  0  0  0  0
   17.8723   -7.9717   -1.4752 C   0  0  2  0  0  0  0  0  0  0  0  0
   18.6128   -9.2294   -0.9901 C   0  0  1  0  0  0  0  0  0  0  0  0
   18.2247  -10.3300   -1.7266 O   0  0  0  0  0  0  0  0  0  0  0  0
   18.4278   -6.7273   -0.7622 C   0  0  1  0  0  0  0  0  0  0  0  0
   18.0594   -6.7515    0.5675 O   0  0  0  0  0  0  0  0  0  0  0  0
   19.9644   -6.6641   -0.8562 C   0  0  1  0  0  0  0  0  0  0  0  0
   20.4848   -5.5093   -0.0527 C   0  0  0  0  0  0  0  0  0  0  0  0
   21.8221   -5.3181   -0.3349 O   0  0  0  0  0  0  0  0  0  0  0  0
   20.5330   -7.8771   -0.3539 O   0  0  0  0  0  0  0  0  0  0  0  0
   20.1408   -9.0499   -1.0735 C   0  0  1  0  0  0  0  0  0  0  0  0
   20.9643  -10.4642   -0.3736 S   0  0  0  0  0  0  0  0  0  0  0  0
   22.6578  -10.0777   -0.7625 C   0  0  0  0  0  0  0  0  0  0  0  0
   23.4416   -9.3885    0.1552 C   0  0  0  0  0  0  0  0  0  0  0  0
   24.7639   -9.0867   -0.1485 C   0  0  0  0  0  0  0  0  0  0  0  0
   25.3023   -9.4741   -1.3698 C   0  0  0  0  0  0  0  0  0  0  0  0
   24.5184  -10.1634   -2.2875 C   0  0  0  0  0  0  0  0  0  0  0  0
   23.1962  -10.4652   -1.9838 C   0  0  0  0  0  0  0  0  0  0  0  0
   16.1370   -8.6931    0.7999 H   0  0  0  0  0  0  0  0  0  0  0  0
   18.0004   -7.8640   -2.5546 H   0  0  0  0  0  0  0  0  0  0  0  0
   18.3359   -9.4423    0.0438 H   0  0  0  0  0  0  0  0  0  0  0  0
   18.4193  -10.2732   -2.7059 H   0  0  0  0  0  0  0  0  0  0  0  0
   17.9896   -5.8210   -1.1827 H   0  0  0  0  0  0  0  0  0  0  0  0
   17.4974   -5.9795    0.8644 H   0  0  0  0  0  0  0  0  0  0  0  0
   20.2855   -6.4938   -1.8862 H   0  0  0  0  0  0  0  0  0  0  0  0
   19.9271   -4.6083   -0.3081 H   0  0  0  0  0  0  0  0  0  0  0  0
   20.3645   -5.7222    1.0095 H   0  0  0  0  0  0  0  0  0  0  0  0
   22.2085   -5.9552   -1.0018 H   0  0  0  0  0  0  0  0  0  0  0  0
   20.4696   -8.9836   -2.1130 H   0  0  0  0  0  0  0  0  0  0  0  0
   23.0225   -9.0868    1.1060 H   0  0  0  0  0  0  0  0  0  0  0  0
   25.3742   -8.5500    0.5660 H   0  0  0  0  0  0  0  0  0  0  0  0
   24.9376  -10.4650   -3.2384 H   0  0  0  0  0  0  0  0  0  0  0  0
   22.5859  -11.0018   -2.6983 H   0  0  0  0  0  0  0  0  0  0  0  0
    9.6799   -9.6475   -0.3452 F   0  0  0  0  0  0  0  0  0  0  0  0
   12.0181   -8.6804    3.6540 F   0  0  0  0  0  0  0  0  0  0  0  0
   26.7293   -9.1484   -1.6975 C   0  0  0  0  0  0  0  0  0  0  0  0
   26.9702   -9.5291   -2.6901 H   0  0  0  0  0  0  0  0  0  0  0  0
   27.3861   -9.6119   -0.9613 H   0  0  0  0  0  0  0  0  0  0  0  0
   26.8687   -8.0675   -1.6793 H   0  0  0  0  0  0  0  0  0  0  0  0
   11.9466   -9.1172   -1.5332 H   0  0  0  0  0  0  0  0  0  0  0  0
    9.9276   -9.3709    2.2440 H   0  0  0  0  0  0  0  0  0  0  0  0
   14.0631   -8.2418    2.0869 H   0  0  0  0  0  0  0  0  0  0  0  0
  1  2  2  0
  1  3  1  0
  1 44  1  0
  2  6  1  0
  2 50  1  0
  3  4  2  0
  3 51  1  0
  4  5  1  0
  4 45  1  0
  5  6  2  0
  5 52  1  0
  6  7  1  0
  7  8  1  0
  7 10  2  0
  8  9  2  0
  9 11  1  0
 10 11  1  0
 10 29  1  0
 11 12  1  0
 12 13  1  0
 12 15  1  0
 12 30  1  6
 13 14  1  0
 13 21  1  0
 13 31  1  1
 14 32  1  0
 15 16  1  0
 15 17  1  0
 15 33  1  6
 16 34  1  0
 17 18  1  0
 17 20  1  0
 17 35  1  6
 18 19  1  0
 18 36  1  0
 18 37  1  0
 19 38  1  0
 20 21  1  0
 21 22  1  0
 21 39  1  6
 22 23  1  0
 23 24  2  0
 23 28  1  0
 24 25  1  0
 24 40  1  0
 25 26  2  0
 25 41  1  0
 26 27  1  0
 26 46  1  0
 27 28  2  0
 27 42  1  0
 28 43  1  0
 46 47  1  0
 46 48  1  0
 46 49  1  0
M  END
>  <i_m_Source_File_Index>  (15) 
15

>  <b_m_subgroup_collapsed>  (15) 
0

>  <r_exp_dg>  (15) 
-6.581

>  <s_m_Source_File>  (15) 
galectin3_extra_ligands.sdf

>  <s_m_Source_Path>  (15) 
/efs/home/chaya/odyssey/projects/openfe-benchmark/Galectin

>  <s_m_entry_id>  (15) 
21

>  <s_m_entry_name>  (15) 
galectin3_extra_ligands.15

>  <s_m_subgroup_title>  (15) 
galectin3_extra_ligands

>  <s_m_subgroupid>  (15) 
galectin3_extra_ligands

>  <experimental dG reference units>  (15) 
kcal/mol

>  <experimental dG reference field>  (15) 
r_exp_dg

>  <kJ/mol experimental dG>  (15) 
-27.534904000000004

>  <kcal/mol experimental dG>  (15) 
-6.581

>  <AmberAM1BCCCache>  (15) 
gASVNwQAAAAAAABdlCiMFm51bXB5Ll9jb3JlLm11bHRpYXJyYXmUjAZzY2FsYXKUk5SMBW51bXB5lIwFZHR5cGWUk5SMAmY4lImIh5RSlChLA4wBPJROTk5K/////0r/////SwB0lGJDCL65tX13vPw/lIaUUpRoA2gJQwi6Wdv5oCAAwJSGlFKUaANoCUMIPwLRps6dA8CUhpRSlGgDaAlDCL65tX13vPw/lIaUUpRoA2gJQwi6Wdv5oCAAwJSGlFKUaANoCUMIJCb2wpMK4L+UhpRSlGgDaAlDCCHEQL97mwtAlIaUUpRoA2gJQwjP1LDbpqMPwJSGlFKUaANoCUMI37sXqxRMAMCUhpRSlGgDaAlDCBkLRP6mOAHAlIaUUpRoA2gJQwhC3tI5JpXmP5SGlFKUaANoCUMIjaxWcJFl4D+UhpRSlGgDaAlDCDViGfgfD/g/lIaUUpRoA2gJQwjBZS/i4kEcwJSGlFKUaANoCUMICIg5tOKM9j+UhpRSlGgDaAlDCNt5IFaydBvAlIaUUpRoA2gJQwhopFHBNGv1P5SGlFKUaANoCUMIIyTQLit++D+UhpRSlGgDaAlDCAdUAJrv9hzAlIaUUpRoA2gJQwhCkEHD2GQSwJSGlFKUaANoCUMIjQ4O7414AECUhpRSlGgDaAlDCCAzoy6zKfu/lIaUUpRoA2gJQwiINDRrg7HQv5SGlFKUaANoCUMIccojH74g9b+UhpRSlGgDaAlDCMqYOYiuG/e/lIaUUpRoA2gJQwgctJJpOLfqv5SGlFKUaANoCUMIypg5iK4b97+UhpRSlGgDaAlDCHHKIx++IPW/lIaUUpRoA2gJQwgKMrUYtyMDQJSGlFKUaANoCUMIVMG3B8Hc7T+UhpRSlGgDaAlDCHaETdnVm/I/lIaUUpRoA2gJQwhEDccwtT8UQJSGlFKUaANoCUMIzv5reR1p6z+UhpRSlGgDaAlDCJaSO5NkCRRAlIaUUpRoA2gJQwiTn/QYmf/kP5SGlFKUaANoCUMIT77OUcfF4z+UhpRSlGgDaAlDCE++zlHHxeM/lIaUUpRoA2gJQwguINeOln4TQJSGlFKUaANoCUMItN3PFBO77D+UhpRSlGgDaAlDCA+Igk0lovo/lIaUUpRoA2gJQwiepXtwZXT5P5SGlFKUaANoCUMInqV7cGV0+T+UhpRSlGgDaAlDCA+Igk0lovo/lIaUUpRoA2gJQwgwwkUffor5v5SGlFKUaANoCUMIMMJFH36K+b+UhpRSlGgDaAlDCPdBC6vSDuW/lIaUUpRoA2gJQwi7HeRbW3rhP5SGlFKUaANoCUMIux3kW1t64T+UhpRSlGgDaAlDCLsd5FtbeuE/lIaUUpRoA2gJQwitKhONrFv+P5SGlFKUaANoCUMIwxcDL8sc/z+UhpRSlGgDaAlDCK0qE42sW/4/lIaUUpRlLg==

$$$$
17e
     RDKit          3D

 52 55  0  0  1  0  0  0  0  0999 V2000
   10.8011   -9.2877    0.2796 C   0  0  0  0  0  0  0  0  0  0  0  0
   11.9594   -9.0271   -0.4571 C   0  0  0  0  0  0  0  0  0  0  0  0
   10.8214   -9.1701    1.6720 C   0  0  0  0  0  0  0  0  0  0  0  0
   11.9975   -8.7929    2.3259 C   0  0  0  0  0  0  0  0  0  0  0  0
   13.1528   -8.5335    1.5842 C   0  0  0  0  0  0  0  0  0  0  0  0
   13.1326   -8.6508    0.1952 C   0  0  0  0  0  0  0  0  0  0  0  0
   14.3746   -8.3717   -0.5984 C   0  0  0  0  0  0  0  0  0  0  0  0
   14.3469   -8.0117   -1.8695 N   0  0  0  0  0  0  0  0  0  0  0  0
   15.6495   -7.8341   -2.2967 N   0  0  0  0  0  0  0  0  0  0  0  0
   15.6852   -8.4424   -0.1508 C   0  0  0  0  0  0  0  0  0  0  0  0
   16.4360   -8.0988   -1.2459 N   0  0  0  0  0  0  0  0  0  0  0  0
   17.8723   -7.9717   -1.4752 C   0  0  2  0  0  0  0  0  0  0  0  0
   18.6128   -9.2294   -0.9901 C   0  0  1  0  0  0  0  0  0  0  0  0
   18.2247  -10.3300   -1.7266 O   0  0  0  0  0  0  0  0  0  0  0  0
   18.4278   -6.7273   -0.7622 C   0  0  1  0  0  0  0  0  0  0  0  0
   18.0594   -6.7515    0.5675 O   0  0  0  0  0  0  0  0  0  0  0  0
   19.9644   -6.6641   -0.8562 C   0  0  1  0  0  0  0  0  0  0  0  0
   20.4848   -5.5093   -0.0527 C   0  0  0  0  0  0  0  0  0  0  0  0
   21.8221   -5.3181   -0.3349 O   0  0  0  0  0  0  0  0  0  0  0  0
   20.5330   -7.8771   -0.3539 O   0  0  0  0  0  0  0  0  0  0  0  0
   20.1408   -9.0499   -1.0735 C   0  0  1  0  0  0  0  0  0  0  0  0
   20.9643  -10.4642   -0.3736 S   0  0  0  0  0  0  0  0  0  0  0  0
   22.6578  -10.0777   -0.7625 C   0  0  0  0  0  0  0  0  0  0  0  0
   23.4416   -9.3885    0.1552 C   0  0  0  0  0  0  0  0  0  0  0  0
   24.7639   -9.0867   -0.1485 C   0  0  0  0  0  0  0  0  0  0  0  0
   25.3023   -9.4741   -1.3698 C   0  0  0  0  0  0  0  0  0  0  0  0
   24.5184  -10.1634   -2.2875 C   0  0  0  0  0  0  0  0  0  0  0  0
   23.1962  -10.4652   -1.9838 C   0  0  0  0  0  0  0  0  0  0  0  0
   16.1370   -8.6931    0.7999 H   0  0  0  0  0  0  0  0  0  0  0  0
   18.0004   -7.8640   -2.5546 H   0  0  0  0  0  0  0  0  0  0  0  0
   18.3359   -9.4423    0.0438 H   0  0  0  0  0  0  0  0  0  0  0  0
   18.4193  -10.2732   -2.7059 H   0  0  0  0  0  0  0  0  0  0  0  0
   17.9896   -5.8210   -1.1827 H   0  0  0  0  0  0  0  0  0  0  0  0
   17.4974   -5.9795    0.8644 H   0  0  0  0  0  0  0  0  0  0  0  0
   20.2855   -6.4938   -1.8862 H   0  0  0  0  0  0  0  0  0  0  0  0
   19.9271   -4.6083   -0.3081 H   0  0  0  0  0  0  0  0  0  0  0  0
   20.3645   -5.7222    1.0095 H   0  0  0  0  0  0  0  0  0  0  0  0
   22.2085   -5.9552   -1.0018 H   0  0  0  0  0  0  0  0  0  0  0  0
   20.4696   -8.9836   -2.1130 H   0  0  0  0  0  0  0  0  0  0  0  0
   23.0225   -9.0868    1.1060 H   0  0  0  0  0  0  0  0  0  0  0  0
   25.3742   -8.5500    0.5660 H   0  0  0  0  0  0  0  0  0  0  0  0
   24.9376  -10.4650   -3.2384 H   0  0  0  0  0  0  0  0  0  0  0  0
   22.5859  -11.0018   -2.6983 H   0  0  0  0  0  0  0  0  0  0  0  0
   12.0181   -8.6804    3.6540 F   0  0  0  0  0  0  0  0  0  0  0  0
   26.7293   -9.1484   -1.6975 C   0  0  0  0  0  0  0  0  0  0  0  0
   26.9702   -9.5291   -2.6901 H   0  0  0  0  0  0  0  0  0  0  0  0
   27.3861   -9.6119   -0.9613 H   0  0  0  0  0  0  0  0  0  0  0  0
   26.8687   -8.0675   -1.6793 H   0  0  0  0  0  0  0  0  0  0  0  0
    9.7177   -9.4181    2.3772 F   0  0  0  0  0  0  0  0  0  0  0  0
    9.8930   -9.5792   -0.2272 H   0  0  0  0  0  0  0  0  0  0  0  0
   11.9466   -9.1172   -1.5332 H   0  0  0  0  0  0  0  0  0  0  0  0
   14.0631   -8.2418    2.0869 H   0  0  0  0  0  0  0  0  0  0  0  0
  1  2  2  0
  1  3  1  0
  1 50  1  0
  2  6  1  0
  2 51  1  0
  3  4  2  0
  3 49  1  0
  4  5  1  0
  4 44  1  0
  5  6  2  0
  5 52  1  0
  6  7  1  0
  7  8  1  0
  7 10  2  0
  8  9  2  0
  9 11  1  0
 10 11  1  0
 10 29  1  0
 11 12  1  0
 12 13  1  0
 12 15  1  0
 12 30  1  6
 13 14  1  0
 13 21  1  0
 13 31  1  1
 14 32  1  0
 15 16  1  0
 15 17  1  0
 15 33  1  6
 16 34  1  0
 17 18  1  0
 17 20  1  0
 17 35  1  6
 18 19  1  0
 18 36  1  0
 18 37  1  0
 19 38  1  0
 20 21  1  0
 21 22  1  0
 21 39  1  6
 22 23  1  0
 23 24  2  0
 23 28  1  0
 24 25  1  0
 24 40  1  0
 25 26  2  0
 25 41  1  0
 26 27  1  0
 26 45  1  0
 27 28  2  0
 27 42  1  0
 28 43  1  0
 45 46  1  0
 45 47  1  0
 45 48  1  0
M  END
>  <i_m_Source_File_Index>  (16) 
16

>  <b_m_subgroup_collapsed>  (16) 
0

>  <r_exp_dg>  (16) 
-6.89697

>  <s_m_Source_File>  (16) 
galectin3_extra_ligands.sdf

>  <s_m_Source_Path>  (16) 
/efs/home/chaya/odyssey/projects/openfe-benchmark/Galectin

>  <s_m_entry_id>  (16) 
22

>  <s_m_entry_name>  (16) 
galectin3_extra_ligands.16

>  <s_m_subgroup_title>  (16) 
galectin3_extra_ligands

>  <s_m_subgroupid>  (16) 
galectin3_extra_ligands

>  <experimental dG reference units>  (16) 
kcal/mol

>  <experimental dG reference field>  (16) 
r_exp_dg

>  <kJ/mol experimental dG>  (16) 
-28.856922479999998

>  <kcal/mol experimental dG>  (16) 
-6.89697

>  <AmberAM1BCCCache>  (16) 
gASVNwQAAAAAAABdlCiMFm51bXB5Ll9jb3JlLm11bHRpYXJyYXmUjAZzY2FsYXKUk5SMBW51bXB5lIwFZHR5cGWUk5SMAmY4lImIh5RSlChLA4wBPJROTk5K/////0r/////SwB0lGJDCO1iaOAG+Pq/lIaUUpRoA2gJQwhp1MgUT3H2v5SGlFKUaANoCUMIeLGrKaUk8T+UhpRSlGgDaAlDCEmjHyN8tfE/lIaUUpRoA2gJQwj0ysBl3tH2v5SGlFKUaANoCUMIAgI3Hi8e77+UhpRSlGgDaAlDCPUw4j0KhAtAlIaUUpRoA2gJQwgpafByBq8PwJSGlFKUaANoCUMITzCc81edAcCUhpRSlGgDaAlDCOu1NjWyXgDAlIaUUpRoA2gJQwiUxQT3SyTkP5SGlFKUaANoCUMIF9zQ4ujt3j+UhpRSlGgDaAlDCMhowjSUFfY/lIaUUpRoA2gJQwjvIiS9V8wcwJSGlFKUaANoCUMIr0cm0Iln9z+UhpRSlGgDaAlDCKtB/vWFkhvAlIaUUpRoA2gJQwgJMJIa8Fj4P5SGlFKUaANoCUMIgehAoooo+T+UhpRSlGgDaAlDCO8iJL1XzBzAlIaUUpRoA2gJQwjkY+k9+QkSwJSGlFKUaANoCUMIqyPFGpD3/j+UhpRSlGgDaAlDCOf6D1svHv+/lIaUUpRoA2gJQwgAuxgYLi7Sv5SGlFKUaANoCUMIVQEvVKam9L+UhpRSlGgDaAlDCCK/9oqRSve/lIaUUpRoA2gJQwjlIanTCMPpv5SGlFKUaANoCUMIIr/2ipFK97+UhpRSlGgDaAlDCFUBL1SmpvS/lIaUUpRoA2gJQwg4h8Lhq/0DQJSGlFKUaANoCUMIdWax+9EP7j+UhpRSlGgDaAlDCE1sHN0b3PE/lIaUUpRoA2gJQwhFRAh78y0UQJSGlFKUaANoCUMIi1OhnfDQ7j+UhpRSlGgDaAlDCHRF6ZDhIRRAlIaUUpRoA2gJQwivEEJKvkXnP5SGlFKUaANoCUMInFf+aotx5D+UhpRSlGgDaAlDCJxX/mqLceQ/lIaUUpRoA2gJQwheWPnuwmATQJSGlFKUaANoCUMINJ/hFXbM6z+UhpRSlGgDaAlDCLVUGloH+Po/lIaUUpRoA2gJQwjQdba+Eab5P5SGlFKUaANoCUMI0HW2vhGm+T+UhpRSlGgDaAlDCLVUGloH+Po/lIaUUpRoA2gJQwgxGu24cL73v5SGlFKUaANoCUMIqI6FsJhs5b+UhpRSlGgDaAlDCCrnABSAveE/lIaUUpRoA2gJQwgq5wAUgL3hP5SGlFKUaANoCUMIKucAFIC94T+UhpRSlGgDaAlDCDEa7bhwvve/lIaUUpRoA2gJQwiyIG6XGwv9P5SGlFKUaANoCUMIoGcquOg2+j+UhpRSlGgDaAlDCBDhjmBaaABAlIaUUpRlLg==

$$$$
17g
     RDKit          3D

 52 55  0  0  1  0  0  0  0  0999 V2000
   10.8011   -9.2877    0.2796 C   0  0  0  0  0  0  0  0  0  0  0  0
   11.9594   -9.0271   -0.4571 C   0  0  0  0  0  0  0  0  0  0  0  0
   10.8214   -9.1701    1.6720 C   0  0  0  0  0  0  0  0  0  0  0  0
   11.9975   -8.7929    2.3259 C   0  0  0  0  0  0  0  0  0  0  0  0
   13.1528   -8.5335    1.5842 C   0  0  0  0  0  0  0  0  0  0  0  0
   13.1326   -8.6508    0.1952 C   0  0  0  0  0  0  0  0  0  0  0  0
   14.3746   -8.3717   -0.5984 C   0  0  0  0  0  0  0  0  0  0  0  0
   14.3469   -8.0117   -1.8695 N   0  0  0  0  0  0  0  0  0  0  0  0
   15.6495   -7.8341   -2.2967 N   0  0  0  0  0  0  0  0  0  0  0  0
   15.6852   -8.4424   -0.1508 C   0  0  0  0  0  0  0  0  0  0  0  0
   16.4360   -8.0988   -1.2459 N   0  0  0  0  0  0  0  0  0  0  0  0
   17.8723   -7.9717   -1.4752 C   0  0  2  0  0  0  0  0  0  0  0  0
   18.6128   -9.2294   -0.9901 C   0  0  1  0  0  0  0  0  0  0  0  0
   18.2247  -10.3300   -1.7266 O   0  0  0  0  0  0  0  0  0  0  0  0
   18.4278   -6.7273   -0.7622 C   0  0  1  0  0  0  0  0  0  0  0  0
   18.0594   -6.7515    0.5675 O   0  0  0  0  0  0  0  0  0  0  0  0
   19.9644   -6.6641   -0.8562 C   0  0  1  0  0  0  0  0  0  0  0  0
   20.4848   -5.5093   -0.0527 C   0  0  0  0  0  0  0  0  0  0  0  0
   21.8221   -5.3181   -0.3349 O   0  0  0  0  0  0  0  0  0  0  0  0
   20.5330   -7.8771   -0.3539 O   0  0  0  0  0  0  0  0  0  0  0  0
   20.1408   -9.0499   -1.0735 C   0  0  1  0  0  0  0  0  0  0  0  0
   20.9643  -10.4642   -0.3736 S   0  0  0  0  0  0  0  0  0  0  0  0
   22.6578  -10.0777   -0.7625 C   0  0  0  0  0  0  0  0  0  0  0  0
   23.4416   -9.3885    0.1552 C   0  0  0  0  0  0  0  0  0  0  0  0
   24.7639   -9.0867   -0.1485 C   0  0  0  0  0  0  0  0  0  0  0  0
   25.3023   -9.4741   -1.3698 C   0  0  0  0  0  0  0  0  0  0  0  0
   24.5184  -10.1634   -2.2875 C   0  0  0  0  0  0  0  0  0  0  0  0
   23.1962  -10.4652   -1.9838 C   0  0  0  0  0  0  0  0  0  0  0  0
   16.1370   -8.6931    0.7999 H   0  0  0  0  0  0  0  0  0  0  0  0
   18.0004   -7.8640   -2.5546 H   0  0  0  0  0  0  0  0  0  0  0  0
   18.3359   -9.4423    0.0438 H   0  0  0  0  0  0  0  0  0  0  0  0
   18.4193  -10.2732   -2.7059 H   0  0  0  0  0  0  0  0  0  0  0  0
   17.9896   -5.8210   -1.1827 H   0  0  0  0  0  0  0  0  0  0  0  0
   17.4974   -5.9795    0.8644 H   0  0  0  0  0  0  0  0  0  0  0  0
   20.2855   -6.4938   -1.8862 H   0  0  0  0  0  0  0  0  0  0  0  0
   19.9271   -4.6083   -0.3081 H   0  0  0  0  0  0  0  0  0  0  0  0
   20.3645   -5.7222    1.0095 H   0  0  0  0  0  0  0  0  0  0  0  0
   22.2085   -5.9552   -1.0018 H   0  0  0  0  0  0  0  0  0  0  0  0
   20.4696   -8.9836   -2.1130 H   0  0  0  0  0  0  0  0  0  0  0  0
   23.0225   -9.0868    1.1060 H   0  0  0  0  0  0  0  0  0  0  0  0
   25.3742   -8.5500    0.5660 H   0  0  0  0  0  0  0  0  0  0  0  0
   24.9376  -10.4650   -3.2384 H   0  0  0  0  0  0  0  0  0  0  0  0
   22.5859  -11.0018   -2.6983 H   0  0  0  0  0  0  0  0  0  0  0  0
    9.6799   -9.6475   -0.3452 F   0  0  0  0  0  0  0  0  0  0  0  0
   12.0181   -8.6804    3.6540 F   0  0  0  0  0  0  0  0  0  0  0  0
   26.7293   -9.1484   -1.6975 C   0  0  0  0  0  0  0  0  0  0  0  0
   26.9702   -9.5291   -2.6901 H   0  0  0  0  0  0  0  0  0  0  0  0
   27.3861   -9.6119   -0.9613 H   0  0  0  0  0  0  0  0  0  0  0  0
   26.8687   -8.0675   -1.6793 H   0  0  0  0  0  0  0  0  0  0  0  0
   11.9466   -9.1172   -1.5332 H   0  0  0  0  0  0  0  0  0  0  0  0
    9.7182   -9.4180    2.3779 F   0  0  0  0  0  0  0  0  0  0  0  0
   14.0631   -8.2418    2.0869 H   0  0  0  0  0  0  0  0  0  0  0  0
  1  2  2  0
  1  3  1  0
  1 44  1  0
  2  6  1  0
  2 50  1  0
  3  4  2  0
  3 51  1  0
  4  5  1  0
  4 45  1  0
  5  6  2  0
  5 52  1  0
  6  7  1  0
  7  8  1  0
  7 10  2  0
  8  9  2  0
  9 11  1  0
 10 11  1  0
 10 29  1  0
 11 12  1  0
 12 13  1  0
 12 15  1  0
 12 30  1  6
 13 14  1  0
 13 21  1  0
 13 31  1  1
 14 32  1  0
 15 16  1  0
 15 17  1  0
 15 33  1  6
 16 34  1  0
 17 18  1  0
 17 20  1  0
 17 35  1  6
 18 19  1  0
 18 36  1  0
 18 37  1  0
 19 38  1  0
 20 21  1  0
 21 22  1  0
 21 39  1  6
 22 23  1  0
 23 24  2  0
 23 28  1  0
 24 25  1  0
 24 40  1  0
 25 26  2  0
 25 41  1  0
 26 27  1  0
 26 46  1  0
 27 28  2  0
 27 42  1  0
 28 43  1  0
 46 47  1  0
 46 48  1  0
 46 49  1  0
M  END
>  <i_m_Source_File_Index>  (17) 
17

>  <b_m_subgroup_collapsed>  (17) 
0

>  <r_exp_dg>  (17) 
-7.20868

>  <s_m_Source_File>  (17) 
galectin3_extra_ligands.sdf

>  <s_m_Source_Path>  (17) 
/efs/home/chaya/odyssey/projects/openfe-benchmark/Galectin

>  <s_m_entry_id>  (17) 
23

>  <s_m_entry_name>  (17) 
galectin3_extra_ligands.17

>  <s_m_subgroup_title>  (17) 
galectin3_extra_ligands

>  <s_m_subgroupid>  (17) 
galectin3_extra_ligands

>  <experimental dG reference units>  (17) 
kcal/mol

>  <experimental dG reference field>  (17) 
r_exp_dg

>  <kJ/mol experimental dG>  (17) 
-30.161117120000004

>  <kcal/mol experimental dG>  (17) 
-7.20868

>  <AmberAM1BCCCache>  (17) 
gASVNwQAAAAAAABdlCiMFm51bXB5Ll9jb3JlLm11bHRpYXJyYXmUjAZzY2FsYXKUk5SMBW51bXB5lIwFZHR5cGWUk5SMAmY4lImIh5RSlChLA4wBPJROTk5K/////0r/////SwB0lGJDCKcWqilWiPY/lIaUUpRoA2gJQwiFU9mRaV78v5SGlFKUaANoCUMIMaLqynH74z+UhpRSlGgDaAlDCKcWqilWiPY/lIaUUpRoA2gJQwiFU9mRaV78v5SGlFKUaANoCUMIS0/O02Zl47+UhpRSlGgDaAlDCJG+jlJ/lApAlIaUUpRoA2gJQwin/N/Cm0wPwJSGlFKUaANoCUMIEb8H7DRrAcCUhpRSlGgDaAlDCLilXGhwN/+/lIaUUpRoA2gJQwiMilYV2OzkP5SGlFKUaANoCUMIxp6kOaU73j+UhpRSlGgDaAlDCP9Pb5uSSfY/lIaUUpRoA2gJQwjE5rb3e9ccwJSGlFKUaANoCUMIoDNXjkBr9z+UhpRSlGgDaAlDCN0HU1yGhRvAlIaUUpRoA2gJQwi2IEcwXyz4P5SGlFKUaANoCUMIc9RxYEEs+T+UhpRSlGgDaAlDCPLnlw1qyxzAlIaUUpRoA2gJQwgXKj6k+fwRwJSGlFKUaANoCUMIWBR6MP/K/j+UhpRSlGgDaAlDCLATY/Qw6v6/lIaUUpRoA2gJQwhR+ETBceDSv5SGlFKUaANoCUMIZBX+le+i9L+UhpRSlGgDaAlDCNPQA6H+Xve/lIaUUpRoA2gJQwh4U08GDFvpv5SGlFKUaANoCUMI09ADof5e97+UhpRSlGgDaAlDCGQV/pXvovS/lIaUUpRoA2gJQwh3+Fbpzi8EQJSGlFKUaANoCUMIVz4TeD8X7j+UhpRSlGgDaAlDCD9YTZvS3/E/lIaUUpRoA2gJQwjkfNL+BEcUQJSGlFKUaANoCUMIbisDGl7Y7j+UhpRSlGgDaAlDCJ6BVla9FhRAlIaUUpRoA2gJQwiR6KPGK03nP5SGlFKUaANoCUMIfy9g5/h45D+UhpRSlGgDaAlDCH8vYOf4eOQ/lIaUUpRoA2gJQwgrkqSIwm0TQJSGlFKUaANoCUMIFndDkuPT6z+UhpRSlGgDaAlDCAVDDUSa4/o/lIaUUpRoA2gJQwhlXyVR7MH5P5SGlFKUaANoCUMIZV8lUezB+T+UhpRSlGgDaAlDCAVDDUSa4/o/lIaUUpRoA2gJQwg/SBLcL7H2v5SGlFKUaANoCUMIP0gS3C+x9r+UhpRSlGgDaAlDCMW2IzQrZeW/lIaUUpRoA2gJQwgNv2KQ7cThP5SGlFKUaANoCUMIDb9ikO3E4T+UhpRSlGgDaAlDCA2/YpDtxOE/lIaUUpRoA2gJQwgsz+rjdYL/P5SGlFKUaANoCUMIK3V4G4fm9L+UhpRSlGgDaAlDCCzP6uN1gv8/lIaUUpRlLg==

$$$$
17a
     RDKit          3D

 52 55  0  0  1  0  0  0  0  0999 V2000
   10.8011   -9.2877    0.2796 C   0  0  0  0  0  0  0  0  0  0  0  0
   11.9594   -9.0271   -0.4571 C   0  0  0  0  0  0  0  0  0  0  0  0
   10.8214   -9.1701    1.6720 C   0  0  0  0  0  0  0  0  0  0  0  0
   11.9975   -8.7929    2.3259 C   0  0  0  0  0  0  0  0  0  0  0  0
   13.1528   -8.5335    1.5842 C   0  0  0  0  0  0  0  0  0  0  0  0
   13.1326   -8.6508    0.1952 C   0  0  0  0  0  0  0  0  0  0  0  0
   14.3746   -8.3717   -0.5984 C   0  0  0  0  0  0  0  0  0  0  0  0
   14.3469   -8.0117   -1.8695 N   0  0  0  0  0  0  0  0  0  0  0  0
   15.6495   -7.8341   -2.2967 N   0  0  0  0  0  0  0  0  0  0  0  0
   15.6852   -8.4424   -0.1508 C   0  0  0  0  0  0  0  0  0  0  0  0
   16.4360   -8.0988   -1.2459 N   0  0  0  0  0  0  0  0  0  0  0  0
   17.8723   -7.9717   -1.4752 C   0  0  2  0  0  0  0  0  0  0  0  0
   18.6128   -9.2294   -0.9901 C   0  0  1  0  0  0  0  0  0  0  0  0
   18.2247  -10.3300   -1.7266 O   0  0  0  0  0  0  0  0  0  0  0  0
   18.4278   -6.7273   -0.7622 C   0  0  1  0  0  0  0  0  0  0  0  0
   18.0594   -6.7515    0.5675 O   0  0  0  0  0  0  0  0  0  0  0  0
   19.9644   -6.6641   -0.8562 C   0  0  1  0  0  0  0  0  0  0  0  0
   20.4848   -5.5093   -0.0527 C   0  0  0  0  0  0  0  0  0  0  0  0
   21.8221   -5.3181   -0.3349 O   0  0  0  0  0  0  0  0  0  0  0  0
   20.5330   -7.8771   -0.3539 O   0  0  0  0  0  0  0  0  0  0  0  0
   20.1408   -9.0499   -1.0735 C   0  0  1  0  0  0  0  0  0  0  0  0
   20.9643  -10.4642   -0.3736 S   0  0  0  0  0  0  0  0  0  0  0  0
   22.6578  -10.0777   -0.7625 C   0  0  0  0  0  0  0  0  0  0  0  0
   23.4416   -9.3885    0.1552 C   0  0  0  0  0  0  0  0  0  0  0  0
   24.7639   -9.0867   -0.1485 C   0  0  0  0  0  0  0  0  0  0  0  0
   25.3023   -9.4741   -1.3698 C   0  0  0  0  0  0  0  0  0  0  0  0
   24.5184  -10.1634   -2.2875 C   0  0  0  0  0  0  0  0  0  0  0  0
   23.1962  -10.4652   -1.9838 C   0  0  0  0  0  0  0  0  0  0  0  0
   16.1370   -8.6931    0.7999 H   0  0  0  0  0  0  0  0  0  0  0  0
   18.0004   -7.8640   -2.5546 H   0  0  0  0  0  0  0  0  0  0  0  0
   18.3359   -9.4423    0.0438 H   0  0  0  0  0  0  0  0  0  0  0  0
   18.4193  -10.2732   -2.7059 H   0  0  0  0  0  0  0  0  0  0  0  0
   17.9896   -5.8210   -1.1827 H   0  0  0  0  0  0  0  0  0  0  0  0
   17.4974   -5.9795    0.8644 H   0  0  0  0  0  0  0  0  0  0  0  0
   20.2855   -6.4938   -1.8862 H   0  0  0  0  0  0  0  0  0  0  0  0
   19.9271   -4.6083   -0.3081 H   0  0  0  0  0  0  0  0  0  0  0  0
   20.3645   -5.7222    1.0095 H   0  0  0  0  0  0  0  0  0  0  0  0
   22.2085   -5.9552   -1.0018 H   0  0  0  0  0  0  0  0  0  0  0  0
   20.4696   -8.9836   -2.1130 H   0  0  0  0  0  0  0  0  0  0  0  0
   23.0225   -9.0868    1.1060 H   0  0  0  0  0  0  0  0  0  0  0  0
   25.3742   -8.5500    0.5660 H   0  0  0  0  0  0  0  0  0  0  0  0
   24.9376  -10.4650   -3.2384 H   0  0  0  0  0  0  0  0  0  0  0  0
   22.5859  -11.0018   -2.6983 H   0  0  0  0  0  0  0  0  0  0  0  0
   26.7293   -9.1484   -1.6975 C   0  0  0  0  0  0  0  0  0  0  0  0
   26.9702   -9.5291   -2.6901 H   0  0  0  0  0  0  0  0  0  0  0  0
   27.3861   -9.6119   -0.9613 H   0  0  0  0  0  0  0  0  0  0  0  0
   26.8687   -8.0675   -1.6793 H   0  0  0  0  0  0  0  0  0  0  0  0
    9.8930   -9.5792   -0.2272 H   0  0  0  0  0  0  0  0  0  0  0  0
   11.9466   -9.1172   -1.5332 H   0  0  0  0  0  0  0  0  0  0  0  0
   12.0118   -8.7024    3.4020 H   0  0  0  0  0  0  0  0  0  0  0  0
   14.0631   -8.2418    2.0869 H   0  0  0  0  0  0  0  0  0  0  0  0
    9.9276   -9.3709    2.2440 H   0  0  0  0  0  0  0  0  0  0  0  0
  1  2  2  0
  1  3  1  0
  1 48  1  0
  2  6  1  0
  2 49  1  0
  3  4  2  0
  3 52  1  0
  4  5  1  0
  4 50  1  0
  5  6  2  0
  5 51  1  0
  6  7  1  0
  7  8  1  0
  7 10  2  0
  8  9  2  0
  9 11  1  0
 10 11  1  0
 10 29  1  0
 11 12  1  0
 12 13  1  0
 12 15  1  0
 12 30  1  6
 13 14  1  0
 13 21  1  0
 13 31  1  1
 14 32  1  0
 15 16  1  0
 15 17  1  0
 15 33  1  6
 16 34  1  0
 17 18  1  0
 17 20  1  0
 17 35  1  6
 18 19  1  0
 18 36  1  0
 18 37  1  0
 19 38  1  0
 20 21  1  0
 21 22  1  0
 21 39  1  6
 22 23  1  0
 23 24  2  0
 23 28  1  0
 24 25  1  0
 24 40  1  0
 25 26  2  0
 25 41  1  0
 26 27  1  0
 26 44  1  0
 27 28  2  0
 27 42  1  0
 28 43  1  0
 44 45  1  0
 44 46  1  0
 44 47  1  0
M  END
>  <i_m_Source_File_Index>  (18) 
18

>  <b_m_subgroup_collapsed>  (18) 
0

>  <r_exp_dg>  (18) 
-5.53273

>  <s_m_Source_File>  (18) 
galectin3_extra_ligands.sdf

>  <s_m_Source_Path>  (18) 
/efs/home/chaya/odyssey/projects/openfe-benchmark/Galectin

>  <s_m_entry_id>  (18) 
24

>  <s_m_entry_name>  (18) 
galectin3_extra_ligands.18

>  <s_m_subgroup_title>  (18) 
galectin3_extra_ligands

>  <s_m_subgroupid>  (18) 
galectin3_extra_ligands

>  <experimental dG reference units>  (18) 
kcal/mol

>  <experimental dG reference field>  (18) 
r_exp_dg

>  <kJ/mol experimental dG>  (18) 
-23.14894232

>  <kcal/mol experimental dG>  (18) 
-5.53273

>  <AmberAM1BCCCache>  (18) 
gASVNwQAAAAAAABdlCiMFm51bXB5Ll9jb3JlLm11bHRpYXJyYXmUjAZzY2FsYXKUk5SMBW51bXB5lIwFZHR5cGWUk5SMAmY4lImIh5RSlChLA4wBPJROTk5K/////0r/////SwB0lGJDCGUTgcHy5Pi/lIaUUpRoA2gJQwjHcPCBayv1v5SGlFKUaANoCUMIITJb+iCr97+UhpRSlGgDaAlDCGUTgcHy5Pi/lIaUUpRoA2gJQwjHcPCBayv1v5SGlFKUaANoCUMIbJUvKEC187+UhpRSlGgDaAlDCMyr7w09WA5AlIaUUpRoA2gJQwg8SguSEjgQwJSGlFKUaANoCUMI6TZxhF6l/7+UhpRSlGgDaAlDCMGW/YM5GATAlIaUUpRoA2gJQwiWq49VQXblP5SGlFKUaANoCUMIAwYQ7Byd0z+UhpRSlGgDaAlDCPKbkUZWSvk/lIaUUpRoA2gJQwiYX7jnl54bwJSGlFKUaANoCUMI+gPqyy0k9T+UhpRSlGgDaAlDCDHtU+PJExvAlIaUUpRoA2gJQwjHeA1ChpLrP5SGlFKUaANoCUMI+GSOAPZw+T+UhpRSlGgDaAlDCPRHJDL+jxzAlIaUUpRoA2gJQwh0ZYsiuTcTwJSGlFKUaANoCUMI9iFCZ7h2AUCUhpRSlGgDaAlDCE4mkR/UI/i/lIaUUpRoA2gJQwgQy/VXpdXPv5SGlFKUaANoCUMIr2mq/tZz9b+UhpRSlGgDaAlDCKxCqSwmAve/lIaUUpRoA2gJQwiC61ml1aXrv5SGlFKUaANoCUMIrEKpLCYC97+UhpRSlGgDaAlDCK9pqv7Wc/W/lIaUUpRoA2gJQwgDfTiVl+oBQJSGlFKUaANoCUMI1WhUZxlA7j+UhpRSlGgDaAlDCJX0MxbUq/E/lIaUUpRoA2gJQwj6I4xdBToUQJSGlFKUaANoCUMIBHfgbUKv7T+UhpRSlGgDaAlDCGOwRkNJuxNAlIaUUpRoA2gJQwgTR5F48WLlP5SGlFKUaANoCUMIWUINITmT5T+UhpRSlGgDaAlDCFlCDSE5k+U/lIaUUpRoA2gJQwiGNNqPCpETQJSGlFKUaANoCUMIMFHAsX8x7z+UhpRSlGgDaAlDCObilgBmi/o/lIaUUpRoA2gJQwh1AJAjpl35P5SGlFKUaANoCUMIdQCQI6Zd+T+UhpRSlGgDaAlDCObilgBmi/o/lIaUUpRoA2gJQwi8lerzwdvkv5SGlFKUaANoCUMIatMMwtxM4T+UhpRSlGgDaAlDCGrTDMLcTOE/lIaUUpRoA2gJQwhq0wzC3EzhP5SGlFKUaANoCUMIjQfWpjoV+T+UhpRSlGgDaAlDCFzsnq/WKvo/lIaUUpRoA2gJQwiNB9amOhX5P5SGlFKUaANoCUMIXOyer9Yq+j+UhpRSlGgDaAlDCKQOHCrPzPg/lIaUUpRlLg==

$$$$
17j
     RDKit          3D

 52 55  0  0  1  0  0  0  0  0999 V2000
   10.8011   -9.2877    0.2796 C   0  0  0  0  0  0  0  0  0  0  0  0
   11.9594   -9.0271   -0.4571 C   0  0  0  0  0  0  0  0  0  0  0  0
   10.8214   -9.1701    1.6720 C   0  0  0  0  0  0  0  0  0  0  0  0
   11.9975   -8.7929    2.3259 C   0  0  0  0  0  0  0  0  0  0  0  0
   13.1528   -8.5335    1.5842 C   0  0  0  0  0  0  0  0  0  0  0  0
   13.1326   -8.6508    0.1952 C   0  0  0  0  0  0  0  0  0  0  0  0
   14.3746   -8.3717   -0.5984 C   0  0  0  0  0  0  0  0  0  0  0  0
   14.3469   -8.0117   -1.8695 N   0  0  0  0  0  0  0  0  0  0  0  0
   15.6495   -7.8341   -2.2967 N   0  0  0  0  0  0  0  0  0  0  0  0
   15.6852   -8.4424   -0.1508 C   0  0  0  0  0  0  0  0  0  0  0  0
   16.4360   -8.0988   -1.2459 N   0  0  0  0  0  0  0  0  0  0  0  0
   17.8723   -7.9717   -1.4752 C   0  0  2  0  0  0  0  0  0  0  0  0
   18.6128   -9.2294   -0.9901 C   0  0  1  0  0  0  0  0  0  0  0  0
   18.2247  -10.3300   -1.7266 O   0  0  0  0  0  0  0  0  0  0  0  0
   18.4278   -6.7273   -0.7622 C   0  0  1  0  0  0  0  0  0  0  0  0
   18.0594   -6.7515    0.5675 O   0  0  0  0  0  0  0  0  0  0  0  0
   19.9644   -6.6641   -0.8562 C   0  0  1  0  0  0  0  0  0  0  0  0
   20.4848   -5.5093   -0.0527 C   0  0  0  0  0  0  0  0  0  0  0  0
   21.8221   -5.3181   -0.3349 O   0  0  0  0  0  0  0  0  0  0  0  0
   20.5330   -7.8771   -0.3539 O   0  0  0  0  0  0  0  0  0  0  0  0
   20.1408   -9.0499   -1.0735 C   0  0  1  0  0  0  0  0  0  0  0  0
   20.9643  -10.4642   -0.3736 S   0  0  0  0  0  0  0  0  0  0  0  0
   22.6578  -10.0777   -0.7625 C   0  0  0  0  0  0  0  0  0  0  0  0
   23.4416   -9.3885    0.1552 C   0  0  0  0  0  0  0  0  0  0  0  0
   24.7639   -9.0867   -0.1485 C   0  0  0  0  0  0  0  0  0  0  0  0
   25.3023   -9.4741   -1.3698 C   0  0  0  0  0  0  0  0  0  0  0  0
   24.5184  -10.1634   -2.2875 C   0  0  0  0  0  0  0  0  0  0  0  0
   23.1962  -10.4652   -1.9838 C   0  0  0  0  0  0  0  0  0  0  0  0
   16.1370   -8.6931    0.7999 H   0  0  0  0  0  0  0  0  0  0  0  0
   18.0004   -7.8640   -2.5546 H   0  0  0  0  0  0  0  0  0  0  0  0
   18.3359   -9.4423    0.0438 H   0  0  0  0  0  0  0  0  0  0  0  0
   18.4193  -10.2732   -2.7059 H   0  0  0  0  0  0  0  0  0  0  0  0
   17.9896   -5.8210   -1.1827 H   0  0  0  0  0  0  0  0  0  0  0  0
   17.4974   -5.9795    0.8644 H   0  0  0  0  0  0  0  0  0  0  0  0
   20.2855   -6.4938   -1.8862 H   0  0  0  0  0  0  0  0  0  0  0  0
   19.9271   -4.6083   -0.3081 H   0  0  0  0  0  0  0  0  0  0  0  0
   20.3645   -5.7222    1.0095 H   0  0  0  0  0  0  0  0  0  0  0  0
   22.2085   -5.9552   -1.0018 H   0  0  0  0  0  0  0  0  0  0  0  0
   20.4696   -8.9836   -2.1130 H   0  0  0  0  0  0  0  0  0  0  0  0
   23.0225   -9.0868    1.1060 H   0  0  0  0  0  0  0  0  0  0  0  0
   25.3742   -8.5500    0.5660 H   0  0  0  0  0  0  0  0  0  0  0  0
   24.9376  -10.4650   -3.2384 H   0  0  0  0  0  0  0  0  0  0  0  0
   22.5859  -11.0018   -2.6983 H   0  0  0  0  0  0  0  0  0  0  0  0
   26.7293   -9.1484   -1.6975 C   0  0  0  0  0  0  0  0  0  0  0  0
   26.9702   -9.5291   -2.6901 H   0  0  0  0  0  0  0  0  0  0  0  0
   27.3861   -9.6119   -0.9613 H   0  0  0  0  0  0  0  0  0  0  0  0
   26.8687   -8.0675   -1.6793 H   0  0  0  0  0  0  0  0  0  0  0  0
    9.3890   -9.4920    2.5872 Cl  0  0  0  0  0  0  0  0  0  0  0  0
    9.8930   -9.5792   -0.2272 H   0  0  0  0  0  0  0  0  0  0  0  0
   11.9466   -9.1172   -1.5332 H   0  0  0  0  0  0  0  0  0  0  0  0
   12.0118   -8.7024    3.4020 H   0  0  0  0  0  0  0  0  0  0  0  0
   14.0631   -8.2418    2.0869 H   0  0  0  0  0  0  0  0  0  0  0  0
  1  2  2  0
  1  3  1  0
  1 49  1  0
  2  6  1  0
  2 50  1  0
  3  4  2  0
  3 48  1  0
  4  5  1  0
  4 51  1  0
  5  6  2  0
  5 52  1  0
  6  7  1  0
  7  8  1  0
  7 10  2  0
  8  9  2  0
  9 11  1  0
 10 11  1  0
 10 29  1  0
 11 12  1  0
 12 13  1  0
 12 15  1  0
 12 30  1  6
 13 14  1  0
 13 21  1  0
 13 31  1  1
 14 32  1  0
 15 16  1  0
 15 17  1  0
 15 33  1  6
 16 34  1  0
 17 18  1  0
 17 20  1  0
 17 35  1  6
 18 19  1  0
 18 36  1  0
 18 37  1  0
 19 38  1  0
 20 21  1  0
 21 22  1  0
 21 39  1  6
 22 23  1  0
 23 24  2  0
 23 28  1  0
 24 25  1  0
 24 40  1  0
 25 26  2  0
 25 41  1  0
 26 27  1  0
 26 44  1  0
 27 28  2  0
 27 42  1  0
 28 43  1  0
 44 45  1  0
 44 46  1  0
 44 47  1  0
M  END
>  <i_m_Source_File_Index>  (19) 
19

>  <b_m_subgroup_collapsed>  (19) 
0

>  <r_exp_dg>  (19) 
-6.44095

>  <s_m_Source_File>  (19) 
galectin3_extra_ligands.sdf

>  <s_m_Source_Path>  (19) 
/efs/home/chaya/odyssey/projects/openfe-benchmark/Galectin

>  <s_m_entry_id>  (19) 
25

>  <s_m_entry_name>  (19) 
galectin3_extra_ligands.19

>  <s_m_subgroup_title>  (19) 
galectin3_extra_ligands

>  <s_m_subgroupid>  (19) 
galectin3_extra_ligands

>  <experimental dG reference units>  (19) 
kcal/mol

>  <experimental dG reference field>  (19) 
r_exp_dg

>  <kJ/mol experimental dG>  (19) 
-26.9489348

>  <kcal/mol experimental dG>  (19) 
-6.44095

>  <AmberAM1BCCCache>  (19) 
gASVNwQAAAAAAABdlCiMFm51bXB5Ll9jb3JlLm11bHRpYXJyYXmUjAZzY2FsYXKUk5SMBW51bXB5lIwFZHR5cGWUk5SMAmY4lImIh5RSlChLA4wBPJROTk5K/////0r/////SwB0lGJDCJKuxxghq/e/lIaUUpRoA2gJQwjdBPFVBTr0v5SGlFKUaANoCUMIE47AC68Byz+UhpRSlGgDaAlDCJKuxxghq/e/lIaUUpRoA2gJQwjdBPFVBTr0v5SGlFKUaANoCUMI+DI4q0pj8r+UhpRSlGgDaAlDCGmT2br/1QxAlIaUUpRoA2gJQwi2a2jF7h8QwJSGlFKUaANoCUMIw8Ze882TAMCUhpRSlGgDaAlDCLcAubyiWQLAlIaUUpRoA2gJQwj3rTLBiKblP5SGlFKUaANoCUMI41+e6qGY4D+UhpRSlGgDaAlDCD0+/2CEEPg/lIaUUpRoA2gJQwjv79bddzUcwJSGlFKUaANoCUMIs2Fd8Wqm9j+UhpRSlGgDaAlDCEGC9jBiehvAlIaUUpRoA2gJQwhxgDcqmWz1P5SGlFKUaANoCUMIKwC2l49/+D+UhpRSlGgDaAlDCAXdxn+W9hzAlIaUUpRoA2gJQwhAGQipf2QSwJSGlFKUaANoCUMIM/q+92ORAECUhpRSlGgDaAlDCLtU+5lyQPu/lIaUUpRoA2gJQwjbzaR2YkvQv5SGlFKUaANoCUMICux7in039b+UhpRSlGgDaAlDCMG8Ux9KGve/lIaUUpRoA2gJQwiW8r7o/hTrv5SGlFKUaANoCUMIwbxTH0oa97+UhpRSlGgDaAlDCArse4p9N/W/lIaUUpRoA2gJQwj3JY26D+gCQJSGlFKUaANoCUMI3IKLiPp+7T+UhpRSlGgDaAlDCNxi9W0WhfI/lIaUUpRoA2gJQwjdBPFVBToUQJSGlFKUaANoCUMImru7op476z+UhpRSlGgDaAlDCC+KZbi0AxRAlIaUUpRoA2gJQwikV8DqYQLlP5SGlFKUaANoCUMIvXhcT2yw4z+UhpRSlGgDaAlDCL14XE9ssOM/lIaUUpRoA2gJQwgwlxCp734TQJSGlFKUaANoCUMIgJofPpSN7D+UhpRSlGgDaAlDCOpih6Cbr/o/lIaUUpRoA2gJQwjVgkLvt2n5P5SGlFKUaANoCUMI1YJC77dp+T+UhpRSlGgDaAlDCOpih6Cbr/o/lIaUUpRoA2gJQwjmiT/ZCQzlv5SGlFKUaANoCUMIfLGMaRBt4T+UhpRSlGgDaAlDCHyxjGkQbeE/lIaUUpRoA2gJQwh8sYxpEG3hP5SGlFKUaANoCUMI76A+NwsW8r+UhpRSlGgDaAlDCIpGb5NJ0fs/lIaUUpRoA2gJQwguUVhYqGT7P5SGlFKUaANoCUMIikZvk0nR+z+UhpRSlGgDaAlDCC5RWFioZPs/lIaUUpRlLg==

$$$$
17l
     RDKit          3D

 52 55  0  0  1  0  0  0  0  0999 V2000
   10.8011   -9.2877    0.2796 C   0  0  0  0  0  0  0  0  0  0  0  0
   11.9594   -9.0271   -0.4571 C   0  0  0  0  0  0  0  0  0  0  0  0
   10.8214   -9.1701    1.6720 C   0  0  0  0  0  0  0  0  0  0  0  0
   11.9975   -8.7929    2.3259 C   0  0  0  0  0  0  0  0  0  0  0  0
   13.1528   -8.5335    1.5842 C   0  0  0  0  0  0  0  0  0  0  0  0
   13.1326   -8.6508    0.1952 C   0  0  0  0  0  0  0  0  0  0  0  0
   14.3746   -8.3717   -0.5984 C   0  0  0  0  0  0  0  0  0  0  0  0
   14.3469   -8.0117   -1.8695 N   0  0  0  0  0  0  0  0  0  0  0  0
   15.6495   -7.8341   -2.2967 N   0  0  0  0  0  0  0  0  0  0  0  0
   15.6852   -8.4424   -0.1508 C   0  0  0  0  0  0  0  0  0  0  0  0
   16.4360   -8.0988   -1.2459 N   0  0  0  0  0  0  0  0  0  0  0  0
   17.8723   -7.9717   -1.4752 C   0  0  2  0  0  0  0  0  0  0  0  0
   18.6128   -9.2294   -0.9901 C   0  0  1  0  0  0  0  0  0  0  0  0
   18.2247  -10.3300   -1.7266 O   0  0  0  0  0  0  0  0  0  0  0  0
   18.4278   -6.7273   -0.7622 C   0  0  1  0  0  0  0  0  0  0  0  0
   18.0594   -6.7515    0.5675 O   0  0  0  0  0  0  0  0  0  0  0  0
   19.9644   -6.6641   -0.8562 C   0  0  1  0  0  0  0  0  0  0  0  0
   20.4848   -5.5093   -0.0527 C   0  0  0  0  0  0  0  0  0  0  0  0
   21.8221   -5.3181   -0.3349 O   0  0  0  0  0  0  0  0  0  0  0  0
   20.5330   -7.8771   -0.3539 O   0  0  0  0  0  0  0  0  0  0  0  0
   20.1408   -9.0499   -1.0735 C   0  0  1  0  0  0  0  0  0  0  0  0
   20.9643  -10.4642   -0.3736 S   0  0  0  0  0  0  0  0  0  0  0  0
   22.6578  -10.0777   -0.7625 C   0  0  0  0  0  0  0  0  0  0  0  0
   23.4416   -9.3885    0.1552 C   0  0  0  0  0  0  0  0  0  0  0  0
   24.7639   -9.0867   -0.1485 C   0  0  0  0  0  0  0  0  0  0  0  0
   25.3023   -9.4741   -1.3698 C   0  0  0  0  0  0  0  0  0  0  0  0
   24.5184  -10.1634   -2.2875 C   0  0  0  0  0  0  0  0  0  0  0  0
   23.1962  -10.4652   -1.9838 C   0  0  0  0  0  0  0  0  0  0  0  0
   16.1370   -8.6931    0.7999 H   0  0  0  0  0  0  0  0  0  0  0  0
   18.0004   -7.8640   -2.5546 H   0  0  0  0  0  0  0  0  0  0  0  0
   18.3359   -9.4423    0.0438 H   0  0  0  0  0  0  0  0  0  0  0  0
   18.4193  -10.2732   -2.7059 H   0  0  0  0  0  0  0  0  0  0  0  0
   17.9896   -5.8210   -1.1827 H   0  0  0  0  0  0  0  0  0  0  0  0
   17.4974   -5.9795    0.8644 H   0  0  0  0  0  0  0  0  0  0  0  0
   20.2855   -6.4938   -1.8862 H   0  0  0  0  0  0  0  0  0  0  0  0
   19.9271   -4.6083   -0.3081 H   0  0  0  0  0  0  0  0  0  0  0  0
   20.3645   -5.7222    1.0095 H   0  0  0  0  0  0  0  0  0  0  0  0
   22.2085   -5.9552   -1.0018 H   0  0  0  0  0  0  0  0  0  0  0  0
   20.4696   -8.9836   -2.1130 H   0  0  0  0  0  0  0  0  0  0  0  0
   23.0225   -9.0868    1.1060 H   0  0  0  0  0  0  0  0  0  0  0  0
   25.3742   -8.5500    0.5660 H   0  0  0  0  0  0  0  0  0  0  0  0
   24.9376  -10.4650   -3.2384 H   0  0  0  0  0  0  0  0  0  0  0  0
   22.5859  -11.0018   -2.6983 H   0  0  0  0  0  0  0  0  0  0  0  0
   26.7293   -9.1484   -1.6975 C   0  0  0  0  0  0  0  0  0  0  0  0
   26.9702   -9.5291   -2.6901 H   0  0  0  0  0  0  0  0  0  0  0  0
   27.3861   -9.6119   -0.9613 H   0  0  0  0  0  0  0  0  0  0  0  0
   26.8687   -8.0675   -1.6793 H   0  0  0  0  0  0  0  0  0  0  0  0
    9.2566   -9.5218    2.6719 Br  0  0  0  0  0  0  0  0  0  0  0  0
    9.8930   -9.5792   -0.2272 H   0  0  0  0  0  0  0  0  0  0  0  0
   11.9466   -9.1172   -1.5332 H   0  0  0  0  0  0  0  0  0  0  0  0
   12.0118   -8.7024    3.4020 H   0  0  0  0  0  0  0  0  0  0  0  0
   14.0631   -8.2418    2.0869 H   0  0  0  0  0  0  0  0  0  0  0  0
  1  2  2  0
  1  3  1  0
  1 49  1  0
  2  6  1  0
  2 50  1  0
  3  4  2  0
  3 48  1  0
  4  5  1  0
  4 51  1  0
  5  6  2  0
  5 52  1  0
  6  7  1  0
  7  8  1  0
  7 10  2  0
  8  9  2  0
  9 11  1  0
 10 11  1  0
 10 29  1  0
 11 12  1  0
 12 13  1  0
 12 15  1  0
 12 30  1  6
 13 14  1  0
 13 21  1  0
 13 31  1  1
 14 32  1  0
 15 16  1  0
 15 17  1  0
 15 33  1  6
 16 34  1  0
 17 18  1  0
 17 20  1  0
 17 35  1  6
 18 19  1  0
 18 36  1  0
 18 37  1  0
 19 38  1  0
 20 21  1  0
 21 22  1  0
 21 39  1  6
 22 23  1  0
 23 24  2  0
 23 28  1  0
 24 25  1  0
 24 40  1  0
 25 26  2  0
 25 41  1  0
 26 27  1  0
 26 44  1  0
 27 28  2  0
 27 42  1  0
 28 43  1  0
 44 45  1  0
 44 46  1  0
 44 47  1  0
M  END
>  <i_m_Source_File_Index>  (20) 
20

>  <b_m_subgroup_collapsed>  (20) 
0

>  <r_exp_dg>  (20) 
-5.94341

>  <s_m_Source_File>  (20) 
galectin3_extra_ligands.sdf

>  <s_m_Source_Path>  (20) 
/efs/home/chaya/odyssey/projects/openfe-benchmark/Galectin

>  <s_m_entry_id>  (20) 
26

>  <s_m_entry_name>  (20) 
galectin3_extra_ligands.20

>  <s_m_subgroup_title>  (20) 
galectin3_extra_ligands

>  <s_m_subgroupid>  (20) 
galectin3_extra_ligands

>  <experimental dG reference units>  (20) 
kcal/mol

>  <experimental dG reference field>  (20) 
r_exp_dg

>  <kJ/mol experimental dG>  (20) 
-24.86722744

>  <kcal/mol experimental dG>  (20) 
-5.94341

>  <AmberAM1BCCCache>  (20) 
gASVNwQAAAAAAABdlCiMFm51bXB5Ll9jb3JlLm11bHRpYXJyYXmUjAZzY2FsYXKUk5SMBW51bXB5lIwFZHR5cGWUk5SMAmY4lImIh5RSlChLA4wBPJROTk5K/////0r/////SwB0lGJDCN4RnEZAtfO/lIaUUpRoA2gJQwjx14oWrgT2v5SGlFKUaANoCUMIW5NHiHqr1L+UhpRSlGgDaAlDCN4RnEZAtfO/lIaUUpRoA2gJQwjx14oWrgT2v5SGlFKUaANoCUMI4eDYOU7f77+UhpRSlGgDaAlDCK+bAFSCgQxAlIaUUpRoA2gJQwh87Tnm0w0QwJSGlFKUaANoCUMI8sc/CbyHAMCUhpRSlGgDaAlDCM4H/z83EQLAlIaUUpRoA2gJQwg8qa5p0NblP5SGlFKUaANoCUMI41+e6qGY4D+UhpRSlGgDaAlDCD0+/2CEEPg/lIaUUpRoA2gJQwhXb+bSgDscwJSGlFKUaANoCUMIs2Fd8Wqm9j+UhpRSlGgDaAlDCNkC5ztZdBvAlIaUUpRoA2gJQwhxgDcqmWz1P5SGlFKUaANoCUMIKwC2l49/+D+UhpRSlGgDaAlDCAXdxn+W9hzAlIaUUpRoA2gJQwhAGQipf2QSwJSGlFKUaANoCUMIM/q+92ORAECUhpRSlGgDaAlDCLtU+5lyQPu/lIaUUpRoA2gJQwjczaR2YkvQv5SGlFKUaANoCUMIOe1coGsr9b+UhpRSlGgDaAlDCMG8Ux9KGve/lIaUUpRoA2gJQwiW8r7o/hTrv5SGlFKUaANoCUMIwbxTH0oa97+UhpRSlGgDaAlDCDntXKBrK/W/lIaUUpRoA2gJQwjJJKykIfQCQJSGlFKUaANoCUMI3IKLiPp+7T+UhpRSlGgDaAlDCNxi9W0WhfI/lIaUUpRoA2gJQwjdBPFVBToUQJSGlFKUaANoCUMImru7op476z+UhpRSlGgDaAlDCC+KZbi0AxRAlIaUUpRoA2gJQwikV8DqYQLlP5SGlFKUaANoCUMIvXhcT2yw4z+UhpRSlGgDaAlDCL14XE9ssOM/lIaUUpRoA2gJQwgwlxCp734TQJSGlFKUaANoCUMIgJofPpSN7D+UhpRSlGgDaAlDCOpih6Cbr/o/lIaUUpRoA2gJQwjVgkLvt2n5P5SGlFKUaANoCUMI1YJC77dp+T+UhpRSlGgDaAlDCOpih6Cbr/o/lIaUUpRoA2gJQwjmiT/ZCQzlv5SGlFKUaANoCUMIfLGMaRBt4T+UhpRSlGgDaAlDCHyxjGkQbeE/lIaUUpRoA2gJQwh8sYxpEG3hP5SGlFKUaANoCUMI7PGXXuHl8L+UhpRSlGgDaAlDCLlHUKk3xfs/lIaUUpRoA2gJQwj/T3dCunD7P5SGlFKUaANoCUMIuUdQqTfF+z+UhpRSlGgDaAlDCP9Pd0K6cPs/lIaUUpRlLg==

$$$$
17c
     RDKit          3D

 52 55  0  0  1  0  0  0  0  0999 V2000
   10.8011   -9.2877    0.2796 C   0  0  0  0  0  0  0  0  0  0  0  0
   11.9594   -9.0271   -0.4571 C   0  0  0  0  0  0  0  0  0  0  0  0
   10.8214   -9.1701    1.6720 C   0  0  0  0  0  0  0  0  0  0  0  0
   11.9975   -8.7929    2.3259 C   0  0  0  0  0  0  0  0  0  0  0  0
   13.1528   -8.5335    1.5842 C   0  0  0  0  0  0  0  0  0  0  0  0
   13.1326   -8.6508    0.1952 C   0  0  0  0  0  0  0  0  0  0  0  0
   14.3746   -8.3717   -0.5984 C   0  0  0  0  0  0  0  0  0  0  0  0
   14.3469   -8.0117   -1.8695 N   0  0  0  0  0  0  0  0  0  0  0  0
   15.6495   -7.8341   -2.2967 N   0  0  0  0  0  0  0  0  0  0  0  0
   15.6852   -8.4424   -0.1508 C   0  0  0  0  0  0  0  0  0  0  0  0
   16.4360   -8.0988   -1.2459 N   0  0  0  0  0  0  0  0  0  0  0  0
   17.8723   -7.9717   -1.4752 C   0  0  2  0  0  0  0  0  0  0  0  0
   18.6128   -9.2294   -0.9901 C   0  0  1  0  0  0  0  0  0  0  0  0
   18.2247  -10.3300   -1.7266 O   0  0  0  0  0  0  0  0  0  0  0  0
   18.4278   -6.7273   -0.7622 C   0  0  1  0  0  0  0  0  0  0  0  0
   18.0594   -6.7515    0.5675 O   0  0  0  0  0  0  0  0  0  0  0  0
   19.9644   -6.6641   -0.8562 C   0  0  1  0  0  0  0  0  0  0  0  0
   20.4848   -5.5093   -0.0527 C   0  0  0  0  0  0  0  0  0  0  0  0
   21.8221   -5.3181   -0.3349 O   0  0  0  0  0  0  0  0  0  0  0  0
   20.5330   -7.8771   -0.3539 O   0  0  0  0  0  0  0  0  0  0  0  0
   20.1408   -9.0499   -1.0735 C   0  0  1  0  0  0  0  0  0  0  0  0
   20.9643  -10.4642   -0.3736 S   0  0  0  0  0  0  0  0  0  0  0  0
   22.6578  -10.0777   -0.7625 C   0  0  0  0  0  0  0  0  0  0  0  0
   23.4416   -9.3885    0.1552 C   0  0  0  0  0  0  0  0  0  0  0  0
   24.7639   -9.0867   -0.1485 C   0  0  0  0  0  0  0  0  0  0  0  0
   25.3023   -9.4741   -1.3698 C   0  0  0  0  0  0  0  0  0  0  0  0
   24.5184  -10.1634   -2.2875 C   0  0  0  0  0  0  0  0  0  0  0  0
   23.1962  -10.4652   -1.9838 C   0  0  0  0  0  0  0  0  0  0  0  0
   16.1370   -8.6931    0.7999 H   0  0  0  0  0  0  0  0  0  0  0  0
   18.0004   -7.8640   -2.5546 H   0  0  0  0  0  0  0  0  0  0  0  0
   18.3359   -9.4423    0.0438 H   0  0  0  0  0  0  0  0  0  0  0  0
   18.4193  -10.2732   -2.7059 H   0  0  0  0  0  0  0  0  0  0  0  0
   17.9896   -5.8210   -1.1827 H   0  0  0  0  0  0  0  0  0  0  0  0
   17.4974   -5.9795    0.8644 H   0  0  0  0  0  0  0  0  0  0  0  0
   20.2855   -6.4938   -1.8862 H   0  0  0  0  0  0  0  0  0  0  0  0
   19.9271   -4.6083   -0.3081 H   0  0  0  0  0  0  0  0  0  0  0  0
   20.3645   -5.7222    1.0095 H   0  0  0  0  0  0  0  0  0  0  0  0
   22.2085   -5.9552   -1.0018 H   0  0  0  0  0  0  0  0  0  0  0  0
   20.4696   -8.9836   -2.1130 H   0  0  0  0  0  0  0  0  0  0  0  0
   23.0225   -9.0868    1.1060 H   0  0  0  0  0  0  0  0  0  0  0  0
   25.3742   -8.5500    0.5660 H   0  0  0  0  0  0  0  0  0  0  0  0
   24.9376  -10.4650   -3.2384 H   0  0  0  0  0  0  0  0  0  0  0  0
   22.5859  -11.0018   -2.6983 H   0  0  0  0  0  0  0  0  0  0  0  0
   12.0181   -8.6804    3.6540 F   0  0  0  0  0  0  0  0  0  0  0  0
   26.7293   -9.1484   -1.6975 C   0  0  0  0  0  0  0  0  0  0  0  0
   26.9702   -9.5291   -2.6901 H   0  0  0  0  0  0  0  0  0  0  0  0
   27.3861   -9.6119   -0.9613 H   0  0  0  0  0  0  0  0  0  0  0  0
   26.8687   -8.0675   -1.6793 H   0  0  0  0  0  0  0  0  0  0  0  0
    9.8930   -9.5792   -0.2272 H   0  0  0  0  0  0  0  0  0  0  0  0
   11.9466   -9.1172   -1.5332 H   0  0  0  0  0  0  0  0  0  0  0  0
    9.9276   -9.3709    2.2440 H   0  0  0  0  0  0  0  0  0  0  0  0
   14.0631   -8.2418    2.0869 H   0  0  0  0  0  0  0  0  0  0  0  0
  1  2  2  0
  1  3  1  0
  1 49  1  0
  2  6  1  0
  2 50  1  0
  3  4  2  0
  3 51  1  0
  4  5  1  0
  4 44  1  0
  5  6  2  0
  5 52  1  0
  6  7  1  0
  7  8  1  0
  7 10  2  0
  8  9  2  0
  9 11  1  0
 10 11  1  0
 10 29  1  0
 11 12  1  0
 12 13  1  0
 12 15  1  0
 12 30  1  6
 13 14  1  0
 13 21  1  0
 13 31  1  1
 14 32  1  0
 15 16  1  0
 15 17  1  0
 15 33  1  6
 16 34  1  0
 17 18  1  0
 17 20  1  0
 17 35  1  6
 18 19  1  0
 18 36  1  0
 18 37  1  0
 19 38  1  0
 20 21  1  0
 21 22  1  0
 21 39  1  6
 22 23  1  0
 23 24  2  0
 23 28  1  0
 24 25  1  0
 24 40  1  0
 25 26  2  0
 25 41  1  0
 26 27  1  0
 26 45  1  0
 27 28  2  0
 27 42  1  0
 28 43  1  0
 45 46  1  0
 45 47  1  0
 45 48  1  0
M  END
>  <i_m_Source_File_Index>  (21) 
21

>  <b_m_subgroup_collapsed>  (21) 
0

>  <r_exp_dg>  (21) 
-6.35409

>  <s_m_Source_File>  (21) 
galectin3_extra_ligands.sdf

>  <s_m_Source_Path>  (21) 
/efs/home/chaya/odyssey/projects/openfe-benchmark/Galectin

>  <s_m_entry_id>  (21) 
27

>  <s_m_entry_name>  (21) 
galectin3_extra_ligands.21

>  <s_m_subgroup_title>  (21) 
galectin3_extra_ligands

>  <s_m_subgroupid>  (21) 
galectin3_extra_ligands

>  <experimental dG reference units>  (21) 
kcal/mol

>  <experimental dG reference field>  (21) 
r_exp_dg

>  <kJ/mol experimental dG>  (21) 
-26.58551256

>  <kcal/mol experimental dG>  (21) 
-6.35409

>  <AmberAM1BCCCache>  (21) 
gASVNwQAAAAAAABdlCiMFm51bXB5Ll9jb3JlLm11bHRpYXJyYXmUjAZzY2FsYXKUk5SMBW51bXB5lIwFZHR5cGWUk5SMAmY4lImIh5RSlChLA4wBPJROTk5K/////0r/////SwB0lGJDCG32BsyBFvS/lIaUUpRoA2gJQwiTaI6K5775v5SGlFKUaANoCUMIz+FbzOEe/7+UhpRSlGgDaAlDCIUuW3AvXfc/lIaUUpRoA2gJQwi+NcPd6cX7v5SGlFKUaANoCUMIfDVlWo8R67+UhpRSlGgDaAlDCEWlt0QgewxAlIaUUpRoA2gJQwgsqjeJ7gEQwJSGlFKUaANoCUMIXL6IGB6OAMCUhpRSlGgDaAlDCGj/KGWHCwLAlIaUUpRoA2gJQwiRz4osSL3lP5SGlFKUaANoCUMI24O4gT2X4D+UhpRSlGgDaAlDCDlQjCzSD/g/lIaUUpRoA2gJQwhwq/NqpDUcwJSGlFKUaANoCUMIr3PqvLil9j+UhpRSlGgDaAlDCMI9E76OehvAlIaUUpRoA2gJQwhtksT15mv1P5SGlFKUaANoCUMIJRJDY91++D+UhpRSlGgDaAlDCIaY4wzD9hzAlIaUUpRoA2gJQwjB1CQ2rGQSwJSGlFKUaANoCUMIMYOF3QqRAECUhpRSlGgDaAlDCO5DT+QSNfu/lIaUUpRoA2gJQwjrhXBIK07Qv5SGlFKUaANoCUMID9ruvi849b+UhpRSlGgDaAlDCMWqxlP8Gve/lIaUUpRoA2gJQwiezqRRYxbrv5SGlFKUaANoCUMIxarGU/wa97+UhpRSlGgDaAlDCA/a7r4vOPW/lIaUUpRoA2gJQwhdLmOVv+0CQJSGlFKUaANoCUMI1KalH5Z97T+UhpRSlGgDaAlDCNh0gjlkhPI/lIaUUpRoA2gJQwioiUxO1DYUQJSGlFKUaANoCUMINN0TDl5S6z+UhpRSlGgDaAlDCK7OSCuIAxRAlIaUUpRoA2gJQwibe9qB/QDlP5SGlFKUaANoCUMItZx25gev4z+UhpRSlGgDaAlDCLWcduYHr+M/lIaUUpRoA2gJQwiv2/Mbw34TQJSGlFKUaANoCUMIeL451S+M7D+UhpRSlGgDaAlDCOZ0FGzprvo/lIaUUpRoA2gJQwjRlM+6BWn5P5SGlFKUaANoCUMI0ZTPugVp+T+UhpRSlGgDaAlDCOZ0FGzprvo/lIaUUpRoA2gJQwjNt7rdeav6v5SGlFKUaANoCUMI7mUlQm4N5b+UhpRSlGgDaAlDCJtnuOK1c+E/lIaUUpRoA2gJQwibZ7jitXPhP5SGlFKUaANoCUMIm2e44rVz4T+UhpRSlGgDaAlDCKKGQ7Tc+fk/lIaUUpRoA2gJQwgWg6ByEh76P5SGlFKUaANoCUMIzFN4B98A/D+UhpRSlGgDaAlDCCUV43+UgP4/lIaUUpRlLg==

$$$$
17k
     RDKit          3D

 52 55  0  0  1  0  0  0  0  0999 V2000
   10.8011   -9.2877    0.2796 C   0  0  0  0  0  0  0  0  0  0  0  0
   11.9594   -9.0271   -0.4571 C   0  0  0  0  0  0  0  0  0  0  0  0
   10.8214   -9.1701    1.6720 C   0  0  0  0  0  0  0  0  0  0  0  0
   11.9975   -8.7929    2.3259 C   0  0  0  0  0  0  0  0  0  0  0  0
   13.1528   -8.5335    1.5842 C   0  0  0  0  0  0  0  0  0  0  0  0
   13.1326   -8.6508    0.1952 C   0  0  0  0  0  0  0  0  0  0  0  0
   14.3746   -8.3717   -0.5984 C   0  0  0  0  0  0  0  0  0  0  0  0
   14.3469   -8.0117   -1.8695 N   0  0  0  0  0  0  0  0  0  0  0  0
   15.6495   -7.8341   -2.2967 N   0  0  0  0  0  0  0  0  0  0  0  0
   15.6852   -8.4424   -0.1508 C   0  0  0  0  0  0  0  0  0  0  0  0
   16.4360   -8.0988   -1.2459 N   0  0  0  0  0  0  0  0  0  0  0  0
   17.8723   -7.9717   -1.4752 C   0  0  2  0  0  0  0  0  0  0  0  0
   18.6128   -9.2294   -0.9901 C   0  0  1  0  0  0  0  0  0  0  0  0
   18.2247  -10.3300   -1.7266 O   0  0  0  0  0  0  0  0  0  0  0  0
   18.4278   -6.7273   -0.7622 C   0  0  1  0  0  0  0  0  0  0  0  0
   18.0594   -6.7515    0.5675 O   0  0  0  0  0  0  0  0  0  0  0  0
   19.9644   -6.6641   -0.8562 C   0  0  1  0  0  0  0  0  0  0  0  0
   20.4848   -5.5093   -0.0527 C   0  0  0  0  0  0  0  0  0  0  0  0
   21.8221   -5.3181   -0.3349 O   0  0  0  0  0  0  0  0  0  0  0  0
   20.5330   -7.8771   -0.3539 O   0  0  0  0  0  0  0  0  0  0  0  0
   20.1408   -9.0499   -1.0735 C   0  0  1  0  0  0  0  0  0  0  0  0
   20.9643  -10.4642   -0.3736 S   0  0  0  0  0  0  0  0  0  0  0  0
   22.6578  -10.0777   -0.7625 C   0  0  0  0  0  0  0  0  0  0  0  0
   23.4416   -9.3885    0.1552 C   0  0  0  0  0  0  0  0  0  0  0  0
   24.7639   -9.0867   -0.1485 C   0  0  0  0  0  0  0  0  0  0  0  0
   25.3023   -9.4741   -1.3698 C   0  0  0  0  0  0  0  0  0  0  0  0
   24.5184  -10.1634   -2.2875 C   0  0  0  0  0  0  0  0  0  0  0  0
   23.1962  -10.4652   -1.9838 C   0  0  0  0  0  0  0  0  0  0  0  0
   16.1370   -8.6931    0.7999 H   0  0  0  0  0  0  0  0  0  0  0  0
   18.0004   -7.8640   -2.5546 H   0  0  0  0  0  0  0  0  0  0  0  0
   18.3359   -9.4423    0.0438 H   0  0  0  0  0  0  0  0  0  0  0  0
   18.4193  -10.2732   -2.7059 H   0  0  0  0  0  0  0  0  0  0  0  0
   17.9896   -5.8210   -1.1827 H   0  0  0  0  0  0  0  0  0  0  0  0
   17.4974   -5.9795    0.8644 H   0  0  0  0  0  0  0  0  0  0  0  0
   20.2855   -6.4938   -1.8862 H   0  0  0  0  0  0  0  0  0  0  0  0
   19.9271   -4.6083   -0.3081 H   0  0  0  0  0  0  0  0  0  0  0  0
   20.3645   -5.7222    1.0095 H   0  0  0  0  0  0  0  0  0  0  0  0
   22.2085   -5.9552   -1.0018 H   0  0  0  0  0  0  0  0  0  0  0  0
   20.4696   -8.9836   -2.1130 H   0  0  0  0  0  0  0  0  0  0  0  0
   23.0225   -9.0868    1.1060 H   0  0  0  0  0  0  0  0  0  0  0  0
   25.3742   -8.5500    0.5660 H   0  0  0  0  0  0  0  0  0  0  0  0
   24.9376  -10.4650   -3.2384 H   0  0  0  0  0  0  0  0  0  0  0  0
   22.5859  -11.0018   -2.6983 H   0  0  0  0  0  0  0  0  0  0  0  0
   12.0242   -8.6469    4.0495 Cl  0  0  0  0  0  0  0  0  0  0  0  0
   26.7293   -9.1484   -1.6975 C   0  0  0  0  0  0  0  0  0  0  0  0
   26.9702   -9.5291   -2.6901 H   0  0  0  0  0  0  0  0  0  0  0  0
   27.3861   -9.6119   -0.9613 H   0  0  0  0  0  0  0  0  0  0  0  0
   26.8687   -8.0675   -1.6793 H   0  0  0  0  0  0  0  0  0  0  0  0
    9.3890   -9.4920    2.5872 Cl  0  0  0  0  0  0  0  0  0  0  0  0
    9.8930   -9.5792   -0.2272 H   0  0  0  0  0  0  0  0  0  0  0  0
   11.9466   -9.1172   -1.5332 H   0  0  0  0  0  0  0  0  0  0  0  0
   14.0631   -8.2418    2.0869 H   0  0  0  0  0  0  0  0  0  0  0  0
  1  2  2  0
  1  3  1  0
  1 50  1  0
  2  6  1  0
  2 51  1  0
  3  4  2  0
  3 49  1  0
  4  5  1  0
  4 44  1  0
  5  6  2  0
  5 52  1  0
  6  7  1  0
  7  8  1  0
  7 10  2  0
  8  9  2  0
  9 11  1  0
 10 11  1  0
 10 29  1  0
 11 12  1  0
 12 13  1  0
 12 15  1  0
 12 30  1  6
 13 14  1  0
 13 21  1  0
 13 31  1  1
 14 32  1  0
 15 16  1  0
 15 17  1  0
 15 33  1  6
 16 34  1  0
 17 18  1  0
 17 20  1  0
 17 35  1  6
 18 19  1  0
 18 36  1  0
 18 37  1  0
 19 38  1  0
 20 21  1  0
 21 22  1  0
 21 39  1  6
 22 23  1  0
 23 24  2  0
 23 28  1  0
 24 25  1  0
 24 40  1  0
 25 26  2  0
 25 41  1  0
 26 27  1  0
 26 45  1  0
 27 28  2  0
 27 42  1  0
 28 43  1  0
 45 46  1  0
 45 47  1  0
 45 48  1  0
M  END
>  <i_m_Source_File_Index>  (22) 
22

>  <b_m_subgroup_collapsed>  (22) 
0

>  <r_exp_dg>  (22) 
-6.62188

>  <s_m_Source_File>  (22) 
galectin3_extra_ligands.sdf

>  <s_m_Source_Path>  (22) 
/efs/home/chaya/odyssey/projects/openfe-benchmark/Galectin

>  <s_m_entry_id>  (22) 
28

>  <s_m_entry_name>  (22) 
galectin3_extra_ligands.22

>  <s_m_subgroup_title>  (22) 
galectin3_extra_ligands

>  <s_m_subgroupid>  (22) 
galectin3_extra_ligands

>  <experimental dG reference units>  (22) 
kcal/mol

>  <experimental dG reference field>  (22) 
r_exp_dg

>  <kJ/mol experimental dG>  (22) 
-27.70594592

>  <kcal/mol experimental dG>  (22) 
-6.62188

>  <AmberAM1BCCCache>  (22) 
gASVNwQAAAAAAABdlCiMFm51bXB5Ll9jb3JlLm11bHRpYXJyYXmUjAZzY2FsYXKUk5SMBW51bXB5lIwFZHR5cGWUk5SMAmY4lImIh5RSlChLA4wBPJROTk5K/////0r/////SwB0lGJDCPtshXegMPa/lIaUUpRoA2gJQwgzhkVKIi/1v5SGlFKUaANoCUMIbwi0hQ5AyD+UhpRSlGgDaAlDCGXJ0/bJw8o/lIaUUpRoA2gJQwjps0GYbVzzv5SGlFKUaANoCUMIqQbIk4cP8L+UhpRSlGgDaAlDCDXbe93wBAxAlIaUUpRoA2gJQwj9q0Z1Pu8PwJSGlFKUaANoCUMIJY1I1wXUAMCUhpRSlGgDaAlDCJ7mEuj8VwHAlIaUUpRoA2gJQwiHgXvTx2blP5SGlFKUaANoCUMIwTmXcYEY4D+UhpRSlGgDaAlDCGq1GeLYZ/c/lIaUUpRoA2gJQwhYUfqurmccwJSGlFKUaANoCUMImsOl6AHX9j+UhpRSlGgDaAlDCDVo+FVUfhvAlIaUUpRoA2gJQwijztm0Wmb2P5SGlFKUaANoCUMIRmFogDK4+D+UhpRSlGgDaAlDCL5EmsVt6BzAlIaUUpRoA2gJQwiMggcMP0YSwJSGlFKUaANoCUMIXTd4VfYsAECUhpRSlGgDaAlDCMvNKPUMivy/lIaUUpRoA2gJQwjkKWuMtKrQv5SGlFKUaANoCUMIuItfsM729L+UhpRSlGgDaAlDCI1UW7MSKve/lIaUUpRoA2gJQwhdMFoXuaPqv5SGlFKUaANoCUMIjVRbsxIq97+UhpRSlGgDaAlDCLiLX7DO9vS/lIaUUpRoA2gJQwjaTXSO5FwDQJSGlFKUaANoCUMIY0ugzuCv7T+UhpRSlGgDaAlDCJXQB0D6PPI/lIaUUpRoA2gJQwhPHzo4DTIUQJSGlFKUaANoCUMIwme42zKO7D+UhpRSlGgDaAlDCHYiknLdERRAlIaUUpRoA2gJQwj8EUkqH8TlP5SGlFKUaANoCUMIsT9FeGrx4z+UhpRSlGgDaAlDCLE/RXhq8eM/lIaUUpRoA2gJQwjVMf+O9HQTQJSGlFKUaANoCUMI6moQFgNu7D+UhpRSlGgDaAlDCC7HkcMOyPo/lIaUUpRoA2gJQwh+55cZJX75P5SGlFKUaANoCUMIfueXGSV++T+UhpRSlGgDaAlDCC7HkcMOyPo/lIaUUpRoA2gJQwjsaIl6AW3qv5SGlFKUaANoCUMIfblOAZsr5b+UhpRSlGgDaAlDCLTqEMJ+iOE/lIaUUpRoA2gJQwi06hDCfojhP5SGlFKUaANoCUMItOoQwn6I4T+UhpRSlGgDaAlDCOxoiXoBbeq/lIaUUpRoA2gJQwjkl2lY26r8P5SGlFKUaANoCUMIsLJVSEWZ+z+UhpRSlGgDaAlDCAdnFdC/nf4/lIaUUpRlLg==

$$$$
17b
     RDKit          3D

 52 55  0  0  1  0  0  0  0  0999 V2000
   10.8011   -9.2877    0.2796 C   0  0  0  0  0  0  0  0  0  0  0  0
   11.9594   -9.0271   -0.4571 C   0  0  0  0  0  0  0  0  0  0  0  0
   10.8214   -9.1701    1.6720 C   0  0  0  0  0  0  0  0  0  0  0  0
   11.9975   -8.7929    2.3259 C   0  0  0  0  0  0  0  0  0  0  0  0
   13.1528   -8.5335    1.5842 C   0  0  0  0  0  0  0  0  0  0  0  0
   13.1326   -8.6508    0.1952 C   0  0  0  0  0  0  0  0  0  0  0  0
   14.3746   -8.3717   -0.5984 C   0  0  0  0  0  0  0  0  0  0  0  0
   14.3469   -8.0117   -1.8695 N   0  0  0  0  0  0  0  0  0  0  0  0
   15.6495   -7.8341   -2.2967 N   0  0  0  0  0  0  0  0  0  0  0  0
   15.6852   -8.4424   -0.1508 C   0  0  0  0  0  0  0  0  0  0  0  0
   16.4360   -8.0988   -1.2459 N   0  0  0  0  0  0  0  0  0  0  0  0
   17.8723   -7.9717   -1.4752 C   0  0  2  0  0  0  0  0  0  0  0  0
   18.6128   -9.2294   -0.9901 C   0  0  1  0  0  0  0  0  0  0  0  0
   18.2247  -10.3300   -1.7266 O   0  0  0  0  0  0  0  0  0  0  0  0
   18.4278   -6.7273   -0.7622 C   0  0  1  0  0  0  0  0  0  0  0  0
   18.0594   -6.7515    0.5675 O   0  0  0  0  0  0  0  0  0  0  0  0
   19.9644   -6.6641   -0.8562 C   0  0  1  0  0  0  0  0  0  0  0  0
   20.4848   -5.5093   -0.0527 C   0  0  0  0  0  0  0  0  0  0  0  0
   21.8221   -5.3181   -0.3349 O   0  0  0  0  0  0  0  0  0  0  0  0
   20.5330   -7.8771   -0.3539 O   0  0  0  0  0  0  0  0  0  0  0  0
   20.1408   -9.0499   -1.0735 C   0  0  1  0  0  0  0  0  0  0  0  0
   20.9643  -10.4642   -0.3736 S   0  0  0  0  0  0  0  0  0  0  0  0
   22.6578  -10.0777   -0.7625 C   0  0  0  0  0  0  0  0  0  0  0  0
   23.4416   -9.3885    0.1552 C   0  0  0  0  0  0  0  0  0  0  0  0
   24.7639   -9.0867   -0.1485 C   0  0  0  0  0  0  0  0  0  0  0  0
   25.3023   -9.4741   -1.3698 C   0  0  0  0  0  0  0  0  0  0  0  0
   24.5184  -10.1634   -2.2875 C   0  0  0  0  0  0  0  0  0  0  0  0
   23.1962  -10.4652   -1.9838 C   0  0  0  0  0  0  0  0  0  0  0  0
   16.1370   -8.6931    0.7999 H   0  0  0  0  0  0  0  0  0  0  0  0
   18.0004   -7.8640   -2.5546 H   0  0  0  0  0  0  0  0  0  0  0  0
   18.3359   -9.4423    0.0438 H   0  0  0  0  0  0  0  0  0  0  0  0
   18.4193  -10.2732   -2.7059 H   0  0  0  0  0  0  0  0  0  0  0  0
   17.9896   -5.8210   -1.1827 H   0  0  0  0  0  0  0  0  0  0  0  0
   17.4974   -5.9795    0.8644 H   0  0  0  0  0  0  0  0  0  0  0  0
   20.2855   -6.4938   -1.8862 H   0  0  0  0  0  0  0  0  0  0  0  0
   19.9271   -4.6083   -0.3081 H   0  0  0  0  0  0  0  0  0  0  0  0
   20.3645   -5.7222    1.0095 H   0  0  0  0  0  0  0  0  0  0  0  0
   22.2085   -5.9552   -1.0018 H   0  0  0  0  0  0  0  0  0  0  0  0
   20.4696   -8.9836   -2.1130 H   0  0  0  0  0  0  0  0  0  0  0  0
   23.0225   -9.0868    1.1060 H   0  0  0  0  0  0  0  0  0  0  0  0
   25.3742   -8.5500    0.5660 H   0  0  0  0  0  0  0  0  0  0  0  0
   24.9376  -10.4650   -3.2384 H   0  0  0  0  0  0  0  0  0  0  0  0
   22.5859  -11.0018   -2.6983 H   0  0  0  0  0  0  0  0  0  0  0  0
   14.2796   -8.1731    2.1985 F   0  0  0  0  0  0  0  0  0  0  0  0
   26.7293   -9.1484   -1.6975 C   0  0  0  0  0  0  0  0  0  0  0  0
   26.9702   -9.5291   -2.6901 H   0  0  0  0  0  0  0  0  0  0  0  0
   27.3861   -9.6119   -0.9613 H   0  0  0  0  0  0  0  0  0  0  0  0
   26.8687   -8.0675   -1.6793 H   0  0  0  0  0  0  0  0  0  0  0  0
    9.8930   -9.5792   -0.2272 H   0  0  0  0  0  0  0  0  0  0  0  0
   11.9466   -9.1172   -1.5332 H   0  0  0  0  0  0  0  0  0  0  0  0
    9.9276   -9.3709    2.2440 H   0  0  0  0  0  0  0  0  0  0  0  0
   12.0118   -8.7024    3.4020 H   0  0  0  0  0  0  0  0  0  0  0  0
  1  2  2  0
  1  3  1  0
  1 49  1  0
  2  6  1  0
  2 50  1  0
  3  4  2  0
  3 51  1  0
  4  5  1  0
  4 52  1  0
  5  6  2  0
  5 44  1  0
  6  7  1  0
  7  8  1  0
  7 10  2  0
  8  9  2  0
  9 11  1  0
 10 11  1  0
 10 29  1  0
 11 12  1  0
 12 13  1  0
 12 15  1  0
 12 30  1  6
 13 14  1  0
 13 21  1  0
 13 31  1  1
 14 32  1  0
 15 16  1  0
 15 17  1  0
 15 33  1  6
 16 34  1  0
 17 18  1  0
 17 20  1  0
 17 35  1  6
 18 19  1  0
 18 36  1  0
 18 37  1  0
 19 38  1  0
 20 21  1  0
 21 22  1  0
 21 39  1  6
 22 23  1  0
 23 24  2  0
 23 28  1  0
 24 25  1  0
 24 40  1  0
 25 26  2  0
 25 41  1  0
 26 27  1  0
 26 45  1  0
 27 28  2  0
 27 42  1  0
 28 43  1  0
 45 46  1  0
 45 47  1  0
 45 48  1  0
M  END
>  <i_m_Source_File_Index>  (23) 
23

>  <b_m_subgroup_collapsed>  (23) 
0

>  <r_exp_dg>  (23) 
-5.50639

>  <s_m_Source_File>  (23) 
galectin3_extra_ligands.sdf

>  <s_m_Source_Path>  (23) 
/efs/home/chaya/odyssey/projects/openfe-benchmark/Galectin

>  <s_m_entry_id>  (23) 
29

>  <s_m_entry_name>  (23) 
galectin3_extra_ligands.23

>  <s_m_subgroup_title>  (23) 
galectin3_extra_ligands

>  <s_m_subgroupid>  (23) 
galectin3_extra_ligands

>  <experimental dG reference units>  (23) 
kcal/mol

>  <experimental dG reference field>  (23) 
r_exp_dg

>  <kJ/mol experimental dG>  (23) 
-23.038735759999998

>  <kcal/mol experimental dG>  (23) 
-5.50639

>  <AmberAM1BCCCache>  (23) 
gASVNwQAAAAAAABdlCiMFm51bXB5Ll9jb3JlLm11bHRpYXJyYXmUjAZzY2FsYXKUk5SMBW51bXB5lIwFZHR5cGWUk5SMAmY4lImIh5RSlChLA4wBPJROTk5K/////0r/////SwB0lGJDCLZ49nB5h/u/lIaUUpRoA2gJQwixdQ27f3Dxv5SGlFKUaANoCUMITz+fzLeb87+UhpRSlGgDaAlDCFMO3L/Fxf+/lIaUUpRoA2gJQwgqqA7+nEv6P5SGlFKUaANoCUMI1M0+mG8i+L+UhpRSlGgDaAlDCJsck0bgnAtAlIaUUpRoA2gJQwgmiCgvjykPwJSGlFKUaANoCUMIHDSduHwtAsCUhpRSlGgDaAlDCP/OCYSUFQDAlIaUUpRoA2gJQwh4o/CE16TiP5SGlFKUaANoCUMITTlYKJm03z+UhpRSlGgDaAlDCM9EqJ34FvY/lIaUUpRoA2gJQwinsG76tpscwJSGlFKUaANoCUMIWCFKDRKB9z+UhpRSlGgDaAlDCHrJ48U+nhvAlIaUUpRoA2gJQwgRDHiDVFr4P5SGlFKUaANoCUMIQ8mqYqf5+D+UhpRSlGgDaAlDCO2r6qL+yxzAlIaUUpRoA2gJQwi0684NshUSwJSGlFKUaANoCUMIs/+qg/T4/j+UhpRSlGgDaAlDCN8eKvLKHP+/lIaUUpRoA2gJQwi1cKEwX6bQv5SGlFKUaANoCUMIkyDFk4nV9L+UhpRSlGgDaAlDCBvjECItSfe/lIaUUpRoA2gJQwhiYNVSzyDqv5SGlFKUaANoCUMIG+MQIi1J97+UhpRSlGgDaAlDCJMgxZOJ1fS/lIaUUpRoA2gJQwjIay1n7V4EQJSGlFKUaANoCUMI+CeFfAuy7T+UhpRSlGgDaAlDCGxPSMkUlfE/lIaUUpRoA2gJQwh2vCKrOiIUQJSGlFKUaANoCUMIyRn5deJC7j+UhpRSlGgDaAlDCN87MqBDKBRAlIaUUpRoA2gJQwi/yA0ch0jnP5SGlFKUaANoCUMIrA/KPFR05D+UhpRSlGgDaAlDCKwPyjxUdOQ/lIaUUpRoA2gJQwiO0BMfClUTQJSGlFKUaANoCUMIQlet5z7P6z+UhpRSlGgDaAlDCL0wAMNr+fo/lIaUUpRoA2gJQwg1VF5TUo/5P5SGlFKUaANoCUMINVReU1KP+T+UhpRSlGgDaAlDCL0wAMNr+fo/lIaUUpRoA2gJQwiZE2M8kW/5v5SGlFKUaANoCUMImNa53s9p5b+UhpRSlGgDaAlDCOp6qSE1sOE/lIaUUpRoA2gJQwjqeqkhNbDhP5SGlFKUaANoCUMI6nqpITWw4T+UhpRSlGgDaAlDCB5NGNC91/k/lIaUUpRoA2gJQwjVHfBkirr7P5SGlFKUaANoCUMIHk0Y0L3X+T+UhpRSlGgDaAlDCLwWquH1Avw/lIaUUpRlLg==

$$$$
17h flip
     RDKit          3D

 55 58  0  0  1  0  0  0  0  0999 V2000
   11.9975   -8.7929    2.3259 C   0  0  0  0  0  0  0  0  0  0  0  0
   13.1528   -8.5335    1.5842 C   0  0  0  0  0  0  0  0  0  0  0  0
   10.8214   -9.1701    1.6720 C   0  0  0  0  0  0  0  0  0  0  0  0
   10.8011   -9.2877    0.2796 C   0  0  0  0  0  0  0  0  0  0  0  0
   11.9594   -9.0271   -0.4571 C   0  0  0  0  0  0  0  0  0  0  0  0
   13.1326   -8.6508    0.1952 C   0  0  0  0  0  0  0  0  0  0  0  0
   14.3746   -8.3717   -0.5984 C   0  0  0  0  0  0  0  0  0  0  0  0
   14.3469   -8.0117   -1.8695 N   0  0  0  0  0  0  0  0  0  0  0  0
   15.6495   -7.8341   -2.2967 N   0  0  0  0  0  0  0  0  0  0  0  0
   15.6852   -8.4424   -0.1508 C   0  0  0  0  0  0  0  0  0  0  0  0
   16.4360   -8.0988   -1.2459 N   0  0  0  0  0  0  0  0  0  0  0  0
   17.8723   -7.9717   -1.4752 C   0  0  2  0  0  0  0  0  0  0  0  0
   18.6128   -9.2294   -0.9901 C   0  0  1  0  0  0  0  0  0  0  0  0
   18.2247  -10.3300   -1.7266 O   0  0  0  0  0  0  0  0  0  0  0  0
   18.4278   -6.7273   -0.7622 C   0  0  1  0  0  0  0  0  0  0  0  0
   18.0594   -6.7515    0.5675 O   0  0  0  0  0  0  0  0  0  0  0  0
   19.9644   -6.6641   -0.8562 C   0  0  1  0  0  0  0  0  0  0  0  0
   20.4848   -5.5093   -0.0527 C   0  0  0  0  0  0  0  0  0  0  0  0
   21.8221   -5.3181   -0.3349 O   0  0  0  0  0  0  0  0  0  0  0  0
   20.5330   -7.8771   -0.3539 O   0  0  0  0  0  0  0  0  0  0  0  0
   20.1408   -9.0499   -1.0735 C   0  0  1  0  0  0  0  0  0  0  0  0
   20.9643  -10.4642   -0.3736 S   0  0  0  0  0  0  0  0  0  0  0  0
   22.6578  -10.0777   -0.7625 C   0  0  0  0  0  0  0  0  0  0  0  0
   23.4416   -9.3885    0.1552 C   0  0  0  0  0  0  0  0  0  0  0  0
   24.7639   -9.0867   -0.1485 C   0  0  0  0  0  0  0  0  0  0  0  0
   25.3023   -9.4741   -1.3698 C   0  0  0  0  0  0  0  0  0  0  0  0
   24.5184  -10.1634   -2.2875 C   0  0  0  0  0  0  0  0  0  0  0  0
   23.1962  -10.4652   -1.9838 C   0  0  0  0  0  0  0  0  0  0  0  0
   16.1370   -8.6931    0.7999 H   0  0  0  0  0  0  0  0  0  0  0  0
   18.0004   -7.8640   -2.5546 H   0  0  0  0  0  0  0  0  0  0  0  0
   18.3359   -9.4423    0.0438 H   0  0  0  0  0  0  0  0  0  0  0  0
   18.4193  -10.2732   -2.7059 H   0  0  0  0  0  0  0  0  0  0  0  0
   17.9896   -5.8210   -1.1827 H   0  0  0  0  0  0  0  0  0  0  0  0
   17.4974   -5.9795    0.8644 H   0  0  0  0  0  0  0  0  0  0  0  0
   20.2855   -6.4938   -1.8862 H   0  0  0  0  0  0  0  0  0  0  0  0
   19.9271   -4.6083   -0.3081 H   0  0  0  0  0  0  0  0  0  0  0  0
   20.3645   -5.7222    1.0095 H   0  0  0  0  0  0  0  0  0  0  0  0
   22.2085   -5.9552   -1.0018 H   0  0  0  0  0  0  0  0  0  0  0  0
   20.4696   -8.9836   -2.1130 H   0  0  0  0  0  0  0  0  0  0  0  0
   23.0225   -9.0868    1.1060 H   0  0  0  0  0  0  0  0  0  0  0  0
   25.3742   -8.5500    0.5660 H   0  0  0  0  0  0  0  0  0  0  0  0
   24.9376  -10.4650   -3.2384 H   0  0  0  0  0  0  0  0  0  0  0  0
   22.5859  -11.0018   -2.6983 H   0  0  0  0  0  0  0  0  0  0  0  0
    9.5058   -9.7033   -0.4423 C   0  0  0  0  0  0  0  0  0  0  0  0
   26.7293   -9.1484   -1.6975 C   0  0  0  0  0  0  0  0  0  0  0  0
   26.9702   -9.5291   -2.6901 H   0  0  0  0  0  0  0  0  0  0  0  0
   27.3861   -9.6119   -0.9613 H   0  0  0  0  0  0  0  0  0  0  0  0
   26.8687   -8.0675   -1.6793 H   0  0  0  0  0  0  0  0  0  0  0  0
   14.0631   -8.2418    2.0869 H   0  0  0  0  0  0  0  0  0  0  0  0
    9.7173   -9.4183    2.3765 F   0  0  0  0  0  0  0  0  0  0  0  0
   11.9466   -9.1172   -1.5332 H   0  0  0  0  0  0  0  0  0  0  0  0
   12.0147   -8.7016    3.4019 H   0  0  0  0  0  0  0  0  0  0  0  0
    9.6841   -9.7405   -1.5170 H   0  0  0  0  0  0  0  0  0  0  0  0
    9.1938  -10.6872   -0.0920 H   0  0  0  0  0  0  0  0  0  0  0  0
    8.7216   -8.9769   -0.2295 H   0  0  0  0  0  0  0  0  0  0  0  0
  1  2  2  0
  1  3  1  0
  1 52  1  0
  2  6  1  0
  2 49  1  0
  3  4  2  0
  3 50  1  0
  4  5  1  0
  4 44  1  0
  5  6  2  0
  5 51  1  0
  6  7  1  0
  7  8  1  0
  7 10  2  0
  8  9  2  0
  9 11  1  0
 10 11  1  0
 10 29  1  0
 11 12  1  0
 12 13  1  0
 12 15  1  0
 12 30  1  6
 13 14  1  0
 13 21  1  0
 13 31  1  1
 14 32  1  0
 15 16  1  0
 15 17  1  0
 15 33  1  6
 16 34  1  0
 17 18  1  0
 17 20  1  0
 17 35  1  6
 18 19  1  0
 18 36  1  0
 18 37  1  0
 19 38  1  0
 20 21  1  0
 21 22  1  0
 21 39  1  6
 22 23  1  0
 23 24  2  0
 23 28  1  0
 24 25  1  0
 24 40  1  0
 25 26  2  0
 25 41  1  0
 26 27  1  0
 26 45  1  0
 27 28  2  0
 27 42  1  0
 28 43  1  0
 44 53  1  0
 44 54  1  0
 44 55  1  0
 45 46  1  0
 45 47  1  0
 45 48  1  0
M  END
>  <i_m_Source_File_Index>  (24) 
24

>  <b_m_subgroup_collapsed>  (24) 
0

>  <r_exp_dg>  (24) 
-6.32775

>  <s_m_Source_File>  (24) 
galectin3_extra_ligands.sdf

>  <s_m_Source_Path>  (24) 
/efs/home/chaya/odyssey/projects/openfe-benchmark/Galectin

>  <s_m_entry_id>  (24) 
30

>  <s_m_entry_name>  (24) 
galectin3_extra_ligands.24

>  <s_m_subgroup_title>  (24) 
galectin3_extra_ligands

>  <s_m_subgroupid>  (24) 
galectin3_extra_ligands

>  <experimental dG reference units>  (24) 
kcal/mol

>  <experimental dG reference field>  (24) 
r_exp_dg

>  <kJ/mol experimental dG>  (24) 
-26.475306

>  <kcal/mol experimental dG>  (24) 
-6.32775

>  <AmberAM1BCCCache>  (24) 
gASVcAQAAAAAAABdlCiMFm51bXB5Ll9jb3JlLm11bHRpYXJyYXmUjAZzY2FsYXKUk5SMBW51bXB5lIwFZHR5cGWUk5SMAmY4lImIh5RSlChLA4wBPJROTk5K/////0r/////SwB0lGJDCLd/TQ2l1v6/lIaUUpRoA2gJQwj7xeKjVNPxv5SGlFKUaANoCUMIEppx3txE9z+UhpRSlGgDaAlDCCpPacC7hfS/lIaUUpRoA2gJQwjly0cR+5bxv5SGlFKUaANoCUMImXUe1BYI9b+UhpRSlGgDaAlDCOMvLt2EJw5AlIaUUpRoA2gJQwh8SOQvak0QwJSGlFKUaANoCUMIGEsM8yDl/r+UhpRSlGgDaAlDCPuXMxehEgTAlIaUUpRoA2gJQwjYgJdM4A7nP5SGlFKUaANoCUMIg0jHVIP02j+UhpRSlGgDaAlDCAmQHXEWtvk/lIaUUpRoA2gJQwgHX3Kb3acbwJSGlFKUaANoCUMInPsYOLhr9T+UhpRSlGgDaAlDCPap0+U3OBvAlIaUUpRoA2gJQwgygWrgzxfwP5SGlFKUaANoCUMIy3f0Y+Si+D+UhpRSlGgDaAlDCC0BAfOh2BzAlIaUUpRoA2gJQwivKxPUl/sSwJSGlFKUaANoCUMIjR8rvmKIAUCUhpRSlGgDaAlDCNovQ8k30Pe/lIaUUpRoA2gJQwgW+22YcFrOv5SGlFKUaANoCUMImGhz49uM9b+UhpRSlGgDaAlDCCFFFVP19va/lIaUUpRoA2gJQwj35ilDA/Drv5SGlFKUaANoCUMIIUUVU/X29r+UhpRSlGgDaAlDCJhoc+PbjPW/lIaUUpRoA2gJQwj4fOMXHuQBQJSGlFKUaANoCUMIYG2Eyev17T+UhpRSlGgDaAlDCAje1ns1hPI/lIaUUpRoA2gJQwgR43gO1j8UQJSGlFKUaANoCUMIxb1ImSnB6j+UhpRSlGgDaAlDCLTtYdM00xNAlIaUUpRoA2gJQwigZRe8OQ/kP5SGlFKUaANoCUMIiV7ROKVX5D+UhpRSlGgDaAlDCIle0TilV+Q/lIaUUpRoA2gJQwhRs06735kTQJSGlFKUaANoCUMISWY+Rlc+7j+UhpRSlGgDaAlDCGdj3RBqePo/lIaUUpRoA2gJQwj1gNYzqkr5P5SGlFKUaANoCUMI9YDWM6pK+T+UhpRSlGgDaAlDCGdj3RBqePo/lIaUUpRoA2gJQwjsr5TKHezjv5SGlFKUaANoCUMISJgAFYTd5L+UhpRSlGgDaAlDCLjz3AoNO+E/lIaUUpRoA2gJQwi489wKDTvhP5SGlFKUaANoCUMIuPPcCg074T+UhpRSlGgDaAlDCFvMOWbHY/s/lIaUUpRoA2gJQwgpUgndcof6v5SGlFKUaANoCUMIis0afLVX+z+UhpRSlGgDaAlDCM276zPCDPw/lIaUUpRoA2gJQwgd65mPyRXjP5SGlFKUaANoCUMIHeuZj8kV4z+UhpRSlGgDaAlDCB3rmY/JFeM/lIaUUpRlLg==

$$$$
17i
     RDKit          3D

 52 55  0  0  1  0  0  0  0  0999 V2000
   10.8011   -9.2877    0.2796 C   0  0  0  0  0  0  0  0  0  0  0  0
   11.9594   -9.0271   -0.4571 C   0  0  0  0  0  0  0  0  0  0  0  0
   10.8214   -9.1701    1.6720 C   0  0  0  0  0  0  0  0  0  0  0  0
   11.9975   -8.7929    2.3259 C   0  0  0  0  0  0  0  0  0  0  0  0
   13.1528   -8.5335    1.5842 C   0  0  0  0  0  0  0  0  0  0  0  0
   13.1326   -8.6508    0.1952 C   0  0  0  0  0  0  0  0  0  0  0  0
   14.3746   -8.3717   -0.5984 C   0  0  0  0  0  0  0  0  0  0  0  0
   14.3469   -8.0117   -1.8695 N   0  0  0  0  0  0  0  0  0  0  0  0
   15.6495   -7.8341   -2.2967 N   0  0  0  0  0  0  0  0  0  0  0  0
   15.6852   -8.4424   -0.1508 C   0  0  0  0  0  0  0  0  0  0  0  0
   16.4360   -8.0988   -1.2459 N   0  0  0  0  0  0  0  0  0  0  0  0
   17.8723   -7.9717   -1.4752 C   0  0  2  0  0  0  0  0  0  0  0  0
   18.6128   -9.2294   -0.9901 C   0  0  1  0  0  0  0  0  0  0  0  0
   18.2247  -10.3300   -1.7266 O   0  0  0  0  0  0  0  0  0  0  0  0
   18.4278   -6.7273   -0.7622 C   0  0  1  0  0  0  0  0  0  0  0  0
   18.0594   -6.7515    0.5675 O   0  0  0  0  0  0  0  0  0  0  0  0
   19.9644   -6.6641   -0.8562 C   0  0  1  0  0  0  0  0  0  0  0  0
   20.4848   -5.5093   -0.0527 C   0  0  0  0  0  0  0  0  0  0  0  0
   21.8221   -5.3181   -0.3349 O   0  0  0  0  0  0  0  0  0  0  0  0
   20.5330   -7.8771   -0.3539 O   0  0  0  0  0  0  0  0  0  0  0  0
   20.1408   -9.0499   -1.0735 C   0  0  1  0  0  0  0  0  0  0  0  0
   20.9643  -10.4642   -0.3736 S   0  0  0  0  0  0  0  0  0  0  0  0
   22.6578  -10.0777   -0.7625 C   0  0  0  0  0  0  0  0  0  0  0  0
   23.4416   -9.3885    0.1552 C   0  0  0  0  0  0  0  0  0  0  0  0
   24.7639   -9.0867   -0.1485 C   0  0  0  0  0  0  0  0  0  0  0  0
   25.3023   -9.4741   -1.3698 C   0  0  0  0  0  0  0  0  0  0  0  0
   24.5184  -10.1634   -2.2875 C   0  0  0  0  0  0  0  0  0  0  0  0
   23.1962  -10.4652   -1.9838 C   0  0  0  0  0  0  0  0  0  0  0  0
   16.1370   -8.6931    0.7999 H   0  0  0  0  0  0  0  0  0  0  0  0
   18.0004   -7.8640   -2.5546 H   0  0  0  0  0  0  0  0  0  0  0  0
   18.3359   -9.4423    0.0438 H   0  0  0  0  0  0  0  0  0  0  0  0
   18.4193  -10.2732   -2.7059 H   0  0  0  0  0  0  0  0  0  0  0  0
   17.9896   -5.8210   -1.1827 H   0  0  0  0  0  0  0  0  0  0  0  0
   17.4974   -5.9795    0.8644 H   0  0  0  0  0  0  0  0  0  0  0  0
   20.2855   -6.4938   -1.8862 H   0  0  0  0  0  0  0  0  0  0  0  0
   19.9271   -4.6083   -0.3081 H   0  0  0  0  0  0  0  0  0  0  0  0
   20.3645   -5.7222    1.0095 H   0  0  0  0  0  0  0  0  0  0  0  0
   22.2085   -5.9552   -1.0018 H   0  0  0  0  0  0  0  0  0  0  0  0
   20.4696   -8.9836   -2.1130 H   0  0  0  0  0  0  0  0  0  0  0  0
   23.0225   -9.0868    1.1060 H   0  0  0  0  0  0  0  0  0  0  0  0
   25.3742   -8.5500    0.5660 H   0  0  0  0  0  0  0  0  0  0  0  0
   24.9376  -10.4650   -3.2384 H   0  0  0  0  0  0  0  0  0  0  0  0
   22.5859  -11.0018   -2.6983 H   0  0  0  0  0  0  0  0  0  0  0  0
   12.0242   -8.6469    4.0495 Cl  0  0  0  0  0  0  0  0  0  0  0  0
   26.7293   -9.1484   -1.6975 C   0  0  0  0  0  0  0  0  0  0  0  0
   26.9702   -9.5291   -2.6901 H   0  0  0  0  0  0  0  0  0  0  0  0
   27.3861   -9.6119   -0.9613 H   0  0  0  0  0  0  0  0  0  0  0  0
   26.8687   -8.0675   -1.6793 H   0  0  0  0  0  0  0  0  0  0  0  0
    9.8930   -9.5792   -0.2272 H   0  0  0  0  0  0  0  0  0  0  0  0
   11.9466   -9.1172   -1.5332 H   0  0  0  0  0  0  0  0  0  0  0  0
    9.9276   -9.3709    2.2440 H   0  0  0  0  0  0  0  0  0  0  0  0
   14.0631   -8.2418    2.0869 H   0  0  0  0  0  0  0  0  0  0  0  0
  1  2  2  0
  1  3  1  0
  1 49  1  0
  2  6  1  0
  2 50  1  0
  3  4  2  0
  3 51  1  0
  4  5  1  0
  4 44  1  0
  5  6  2  0
  5 52  1  0
  6  7  1  0
  7  8  1  0
  7 10  2  0
  8  9  2  0
  9 11  1  0
 10 11  1  0
 10 29  1  0
 11 12  1  0
 12 13  1  0
 12 15  1  0
 12 30  1  6
 13 14  1  0
 13 21  1  0
 13 31  1  1
 14 32  1  0
 15 16  1  0
 15 17  1  0
 15 33  1  6
 16 34  1  0
 17 18  1  0
 17 20  1  0
 17 35  1  6
 18 19  1  0
 18 36  1  0
 18 37  1  0
 19 38  1  0
 20 21  1  0
 21 22  1  0
 21 39  1  6
 22 23  1  0
 23 24  2  0
 23 28  1  0
 24 25  1  0
 24 40  1  0
 25 26  2  0
 25 41  1  0
 26 27  1  0
 26 45  1  0
 27 28  2  0
 27 42  1  0
 28 43  1  0
 45 46  1  0
 45 47  1  0
 45 48  1  0
M  END
>  <i_m_Source_File_Index>  (25) 
25

>  <b_m_subgroup_collapsed>  (25) 
0

>  <r_exp_dg>  (25) 
-5.94341

>  <s_m_Source_File>  (25) 
galectin3_extra_ligands.sdf

>  <s_m_Source_Path>  (25) 
/efs/home/chaya/odyssey/projects/openfe-benchmark/Galectin

>  <s_m_entry_id>  (25) 
31

>  <s_m_entry_name>  (25) 
galectin3_extra_ligands.25

>  <s_m_subgroup_title>  (25) 
galectin3_extra_ligands

>  <s_m_subgroupid>  (25) 
galectin3_extra_ligands

>  <experimental dG reference units>  (25) 
kcal/mol

>  <experimental dG reference field>  (25) 
r_exp_dg

>  <kJ/mol experimental dG>  (25) 
-24.86722744

>  <kcal/mol experimental dG>  (25) 
-5.94341

>  <AmberAM1BCCCache>  (25) 
gASVNwQAAAAAAABdlCiMFm51bXB5Ll9jb3JlLm11bHRpYXJyYXmUjAZzY2FsYXKUk5SMBW51bXB5lIwFZHR5cGWUk5SMAmY4lImIh5RSlChLA4wBPJROTk5K/////0r/////SwB0lGJDCIQOuvdgUfe/lIaUUpRoA2gJQwgkT8ajjb30v5SGlFKUaANoCUMI0xRqbAER97+UhpRSlGgDaAlDCPb/jUj4SMk/lIaUUpRoA2gJQwh/NzLu8671v5SGlFKUaANoCUMIf66siOjv8L+UhpRSlGgDaAlDCMxYdwaBbw1AlIaUUpRoA2gJQwjGfvthyTsQwJSGlFKUaANoCUMIlSiiC1xy/r+UhpRSlGgDaAlDCHgKx+gFswPAlIaUUpRoA2gJQwiqxgEqXuznP5SGlFKUaANoCUMIa56NDzpc4T+UhpRSlGgDaAlDCE+1lIuxDPo/lIaUUpRoA2gJQwgqkjGTbLYbwJSGlFKUaANoCUMIESJxaEG29T+UhpRSlGgDaAlDCJ6bOULdVRvAlIaUUpRoA2gJQwh0cjU4f4HyP5SGlFKUaANoCUMIb7mDi9HX9z+UhpRSlGgDaAlDCLNu0wKGIB3AlIaUUpRoA2gJQwg0ppDUtr4SwJSGlFKUaANoCUMIXrNHYZ6nAUCUhpRSlGgDaAlDCIQOuvdgUfe/lIaUUpRoA2gJQwhOm9zkw8jNv5SGlFKUaANoCUMIgDcy7vOu9b+UhpRSlGgDaAlDCMMYWLXF6Pa/lIaUUpRoA2gJQwgLgCMBe2Tsv5SGlFKUaANoCUMIwxhYtcXo9r+UhpRSlGgDaAlDCIA3Mu7zrvW/lIaUUpRoA2gJQwiTEZbJTfsBQJSGlFKUaANoCUMICNkOYyxR7T+UhpRSlGgDaAlDCE32oqWVX/M/lIaUUpRoA2gJQwin7gV/Wj4UQJSGlFKUaANoCUMIIFfPgLVJ6D+UhpRSlGgDaAlDCFL3dx/X5RNAlIaUUpRoA2gJQwjT4e+Hf8HiP5SGlFKUaANoCUMIGN1rMMfx4j+UhpRSlGgDaAlDCBjdazDH8eI/lIaUUpRoA2gJQwhp/r2ia50TQJSGlFKUaANoCUMICNkOYyxR7T+UhpRSlGgDaAlDCLoSTeVsaPo/lIaUUpRoA2gJQwh2MScemy75P5SGlFKUaANoCUMIdjEnHpsu+T+UhpRSlGgDaAlDCLoSTeVsaPo/lIaUUpRoA2gJQwgf8XjyOV3yv5SGlFKUaANoCUMI6UFIBQGp5L+UhpRSlGgDaAlDCJEs4ZPSKeE/lIaUUpRoA2gJQwiRLOGT0inhP5SGlFKUaANoCUMIkSzhk9Ip4T+UhpRSlGgDaAlDCHQX0TwlOPo/lIaUUpRoA2gJQwhS6wAMwvr7P5SGlFKUaANoCUMIn/GwgGK6+z+UhpRSlGgDaAlDCAXlUJchO/w/lIaUUpRlLg==

$$$$
17d
     RDKit          3D

 52 55  0  0  1  0  0  0  0  0999 V2000
   10.8011   -9.2877    0.2796 C   0  0  0  0  0  0  0  0  0  0  0  0
   11.9594   -9.0271   -0.4571 C   0  0  0  0  0  0  0  0  0  0  0  0
   10.8214   -9.1701    1.6720 C   0  0  0  0  0  0  0  0  0  0  0  0
   11.9975   -8.7929    2.3259 C   0  0  0  0  0  0  0  0  0  0  0  0
   13.1528   -8.5335    1.5842 C   0  0  0  0  0  0  0  0  0  0  0  0
   13.1326   -8.6508    0.1952 C   0  0  0  0  0  0  0  0  0  0  0  0
   14.3746   -8.3717   -0.5984 C   0  0  0  0  0  0  0  0  0  0  0  0
   14.3469   -8.0117   -1.8695 N   0  0  0  0  0  0  0  0  0  0  0  0
   15.6495   -7.8341   -2.2967 N   0  0  0  0  0  0  0  0  0  0  0  0
   15.6852   -8.4424   -0.1508 C   0  0  0  0  0  0  0  0  0  0  0  0
   16.4360   -8.0988   -1.2459 N   0  0  0  0  0  0  0  0  0  0  0  0
   17.8723   -7.9717   -1.4752 C   0  0  2  0  0  0  0  0  0  0  0  0
   18.6128   -9.2294   -0.9901 C   0  0  1  0  0  0  0  0  0  0  0  0
   18.2247  -10.3300   -1.7266 O   0  0  0  0  0  0  0  0  0  0  0  0
   18.4278   -6.7273   -0.7622 C   0  0  1  0  0  0  0  0  0  0  0  0
   18.0594   -6.7515    0.5675 O   0  0  0  0  0  0  0  0  0  0  0  0
   19.9644   -6.6641   -0.8562 C   0  0  1  0  0  0  0  0  0  0  0  0
   20.4848   -5.5093   -0.0527 C   0  0  0  0  0  0  0  0  0  0  0  0
   21.8221   -5.3181   -0.3349 O   0  0  0  0  0  0  0  0  0  0  0  0
   20.5330   -7.8771   -0.3539 O   0  0  0  0  0  0  0  0  0  0  0  0
   20.1408   -9.0499   -1.0735 C   0  0  1  0  0  0  0  0  0  0  0  0
   20.9643  -10.4642   -0.3736 S   0  0  0  0  0  0  0  0  0  0  0  0
   22.6578  -10.0777   -0.7625 C   0  0  0  0  0  0  0  0  0  0  0  0
   23.4416   -9.3885    0.1552 C   0  0  0  0  0  0  0  0  0  0  0  0
   24.7639   -9.0867   -0.1485 C   0  0  0  0  0  0  0  0  0  0  0  0
   25.3023   -9.4741   -1.3698 C   0  0  0  0  0  0  0  0  0  0  0  0
   24.5184  -10.1634   -2.2875 C   0  0  0  0  0  0  0  0  0  0  0  0
   23.1962  -10.4652   -1.9838 C   0  0  0  0  0  0  0  0  0  0  0  0
   16.1370   -8.6931    0.7999 H   0  0  0  0  0  0  0  0  0  0  0  0
   18.0004   -7.8640   -2.5546 H   0  0  0  0  0  0  0  0  0  0  0  0
   18.3359   -9.4423    0.0438 H   0  0  0  0  0  0  0  0  0  0  0  0
   18.4193  -10.2732   -2.7059 H   0  0  0  0  0  0  0  0  0  0  0  0
   17.9896   -5.8210   -1.1827 H   0  0  0  0  0  0  0  0  0  0  0  0
   17.4974   -5.9795    0.8644 H   0  0  0  0  0  0  0  0  0  0  0  0
   20.2855   -6.4938   -1.8862 H   0  0  0  0  0  0  0  0  0  0  0  0
   19.9271   -4.6083   -0.3081 H   0  0  0  0  0  0  0  0  0  0  0  0
   20.3645   -5.7222    1.0095 H   0  0  0  0  0  0  0  0  0  0  0  0
   22.2085   -5.9552   -1.0018 H   0  0  0  0  0  0  0  0  0  0  0  0
   20.4696   -8.9836   -2.1130 H   0  0  0  0  0  0  0  0  0  0  0  0
   23.0225   -9.0868    1.1060 H   0  0  0  0  0  0  0  0  0  0  0  0
   25.3742   -8.5500    0.5660 H   0  0  0  0  0  0  0  0  0  0  0  0
   24.9376  -10.4650   -3.2384 H   0  0  0  0  0  0  0  0  0  0  0  0
   22.5859  -11.0018   -2.6983 H   0  0  0  0  0  0  0  0  0  0  0  0
   26.7293   -9.1484   -1.6975 C   0  0  0  0  0  0  0  0  0  0  0  0
   26.9702   -9.5291   -2.6901 H   0  0  0  0  0  0  0  0  0  0  0  0
   27.3861   -9.6119   -0.9613 H   0  0  0  0  0  0  0  0  0  0  0  0
   26.8687   -8.0675   -1.6793 H   0  0  0  0  0  0  0  0  0  0  0  0
    9.7177   -9.4181    2.3772 F   0  0  0  0  0  0  0  0  0  0  0  0
    9.8930   -9.5792   -0.2272 H   0  0  0  0  0  0  0  0  0  0  0  0
   11.9466   -9.1172   -1.5332 H   0  0  0  0  0  0  0  0  0  0  0  0
   12.0118   -8.7024    3.4020 H   0  0  0  0  0  0  0  0  0  0  0  0
   14.0631   -8.2418    2.0869 H   0  0  0  0  0  0  0  0  0  0  0  0
  1  2  2  0
  1  3  1  0
  1 49  1  0
  2  6  1  0
  2 50  1  0
  3  4  2  0
  3 48  1  0
  4  5  1  0
  4 51  1  0
  5  6  2  0
  5 52  1  0
  6  7  1  0
  7  8  1  0
  7 10  2  0
  8  9  2  0
  9 11  1  0
 10 11  1  0
 10 29  1  0
 11 12  1  0
 12 13  1  0
 12 15  1  0
 12 30  1  6
 13 14  1  0
 13 21  1  0
 13 31  1  1
 14 32  1  0
 15 16  1  0
 15 17  1  0
 15 33  1  6
 16 34  1  0
 17 18  1  0
 17 20  1  0
 17 35  1  6
 18 19  1  0
 18 36  1  0
 18 37  1  0
 19 38  1  0
 20 21  1  0
 21 22  1  0
 21 39  1  6
 22 23  1  0
 23 24  2  0
 23 28  1  0
 24 25  1  0
 24 40  1  0
 25 26  2  0
 25 41  1  0
 26 27  1  0
 26 44  1  0
 27 28  2  0
 27 42  1  0
 28 43  1  0
 44 45  1  0
 44 46  1  0
 44 47  1  0
M  END
>  <i_m_Source_File_Index>  (26) 
26

>  <b_m_subgroup_collapsed>  (26) 
0

>  <r_exp_dg>  (26) 
-6.1509

>  <s_m_Source_File>  (26) 
galectin3_extra_ligands.sdf

>  <s_m_Source_Path>  (26) 
/efs/home/chaya/odyssey/projects/openfe-benchmark/Galectin

>  <s_m_entry_id>  (26) 
32

>  <s_m_entry_name>  (26) 
galectin3_extra_ligands.26

>  <s_m_subgroup_title>  (26) 
galectin3_extra_ligands

>  <s_m_subgroupid>  (26) 
galectin3_extra_ligands

>  <experimental dG reference units>  (26) 
kcal/mol

>  <experimental dG reference field>  (26) 
r_exp_dg

>  <kJ/mol experimental dG>  (26) 
-25.7353656

>  <kcal/mol experimental dG>  (26) 
-6.1509

>  <AmberAM1BCCCache>  (26) 
gASVNwQAAAAAAABdlCiMFm51bXB5Ll9jb3JlLm11bHRpYXJyYXmUjAZzY2FsYXKUk5SMBW51bXB5lIwFZHR5cGWUk5SMAmY4lImIh5RSlChLA4wBPJROTk5K/////0r/////SwB0lGJDCIoCNBf/dP+/lIaUUpRoA2gJQwgWa0YopxPxv5SGlFKUaANoCUMIbf4VCfuj9z+UhpRSlGgDaAlDCIoCNBf/dP+/lIaUUpRoA2gJQwgWa0YopxPxv5SGlFKUaANoCUMIVf5pSxdq9b+UhpRSlGgDaAlDCKB/eRVUKQ1AlIaUUpRoA2gJQwixb7MqnjIQwJSGlFKUaANoCUMIdNN4FeWIAMCUhpRSlGgDaAlDCH4HbnETiwLAlIaUUpRoA2gJQwjtf06Q5KHlP5SGlFKUaANoCUMI2TG6uf2T4D+UhpRSlGgDaAlDCDgnjUgyDvg/lIaUUpRoA2gJQwixdfNjDDYcwJSGlFKUaANoCUMIr0rr2Bik9j+UhpRSlGgDaAlDCAIIE7f2ehvAlIaUUpRoA2gJQwhsacURR2r1P5SGlFKUaANoCUMIJulDfz19+D+UhpRSlGgDaAlDCMdi4wUr9xzAlIaUUpRoA2gJQwgBnyQvFGUSwJSGlFKUaANoCUMIse6F6zqQAECUhpRSlGgDaAlDCMBrbbLEQvu/lIaUUpRoA2gJQwjuKW3YqlTQv5SGlFKUaANoCUMIDwPuos859b+UhpRSlGgDaAlDCMbTxTecHPe/lIaUUpRoA2gJQwifIKMZoxnrv5SGlFKUaANoCUMIxtPFN5wc97+UhpRSlGgDaAlDCA8D7qLPOfW/lIaUUpRoA2gJQwh1GlSu5uYCQJSGlFKUaANoCUMI01SnV1Z67T+UhpRSlGgDaAlDCNhLg1XEgvI/lIaUUpRoA2gJQwiz/8TaZzMUQJSGlFKUaANoCUMIkI3Xcfo26z+UhpRSlGgDaAlDCG4ESTIgAxRAlIaUUpRoA2gJQwiaKdy5vf3kP5SGlFKUaANoCUMIs0p4Hsir4z+UhpRSlGgDaAlDCLNKeB7Iq+M/lIaUUpRoA2gJQwhvEfQiW34TQJSGlFKUaANoCUMId2w7DfCI7D+UhpRSlGgDaAlDCOZLFYhJrfo/lIaUUpRoA2gJQwjQa9DWZWf5P5SGlFKUaANoCUMI0GvQ1mVn+T+UhpRSlGgDaAlDCOZLFYhJrfo/lIaUUpRoA2gJQwjwtyMKrhDlv5SGlFKUaANoCUMIwqfL/H944T+UhpRSlGgDaAlDCMKny/x/eOE/lIaUUpRoA2gJQwjCp8v8f3jhP5SGlFKUaANoCUMIK+N77fWU+r+UhpRSlGgDaAlDCD8n1uF0I/w/lIaUUpRoA2gJQwjMNyQUenr7P5SGlFKUaANoCUMIPyfW4XQj/D+UhpRSlGgDaAlDCMw3JBR6evs/lIaUUpRlLg==

$$$$
