meta methyl ethyl benzene
     RDKit          3D

 21 21  0  0  1  0  0  0  0  0999 V2000
   -7.2944    7.1637   -0.9565 C   0  0  0  0  0  0  0  0  0  0  0  0
   -7.8666    6.0570   -1.5923 C   0  0  0  0  0  0  0  0  0  0  0  0
   -8.6603    6.2343   -2.7246 C   0  0  0  0  0  0  0  0  0  0  0  0
   -8.8944    7.5191   -3.2148 C   0  0  0  0  0  0  0  0  0  0  0  0
   -8.3035    8.6210   -2.6005 C   0  0  0  0  0  0  0  0  0  0  0  0
   -7.5004    8.4443   -1.4758 C   0  0  0  0  0  0  0  0  0  0  0  0
   -6.4979    6.9780    0.3223 C   0  0  0  0  0  0  0  0  0  0  0  0
   -7.4000    7.0133    1.5715 C   0  0  0  0  0  0  0  0  0  0  0  0
   -7.7099    5.0629   -1.2014 H   0  0  0  0  0  0  0  0  0  0  0  0
   -9.5294    7.6705   -4.0709 H   0  0  0  0  0  0  0  0  0  0  0  0
   -8.4705    9.6119   -2.9925 H   0  0  0  0  0  0  0  0  0  0  0  0
   -7.0579    9.3041   -0.9946 H   0  0  0  0  0  0  0  0  0  0  0  0
   -5.7032    7.7224    0.3851 H   0  0  0  0  0  0  0  0  0  0  0  0
   -5.9879    6.0152    0.2721 H   0  0  0  0  0  0  0  0  0  0  0  0
   -6.8615    6.5954    2.4239 H   0  0  0  0  0  0  0  0  0  0  0  0
   -8.2611    6.3695    1.3905 H   0  0  0  0  0  0  0  0  0  0  0  0
   -7.7215    8.0330    1.7836 H   0  0  0  0  0  0  0  0  0  0  0  0
   -9.2717    5.0269   -3.4210 C   0  0  0  0  0  0  0  0  0  0  0  0
   -9.8705    5.3683   -4.3024 H   0  0  0  0  0  0  0  0  0  0  0  0
   -8.4562    4.3431   -3.7664 H   0  0  0  0  0  0  0  0  0  0  0  0
   -9.9377    4.4818   -2.7061 H   0  0  0  0  0  0  0  0  0  0  0  0
  1  2  2  0
  1  6  1  0
  1  7  1  0
  2  3  1  0
  2  9  1  0
  3  4  2  0
  3 18  1  0
  4  5  1  0
  4 10  1  0
  5  6  2  0
  5 11  1  0
  6 12  1  0
  7  8  1  0
  7 13  1  0
  7 14  1  0
  8 15  1  0
  8 16  1  0
  8 17  1  0
 18 19  1  0
 18 20  1  0
 18 21  1  0
M  END
>  <r_exp_dg>  (1) 
-5.08

>  <experimental dG reference units>  (1) 
kcal/mol

>  <experimental dG reference field>  (1) 
r_exp_dg

>  <kJ/mol experimental dG>  (1) 
-21.254720000000002

>  <kcal/mol experimental dG>  (1) 
-5.08

$$$$
methyl benzene
     RDKit          3D

 15 15  0  0  1  0  0  0  0  0999 V2000
   -7.2858    7.1609   -0.9477 C   0  0  0  0  0  0  0  0  0  0  0  0
   -7.8665    6.0569   -1.5923 C   0  0  0  0  0  0  0  0  0  0  0  0
   -8.6603    6.2343   -2.7247 C   0  0  0  0  0  0  0  0  0  0  0  0
   -8.8944    7.5191   -3.2149 C   0  0  0  0  0  0  0  0  0  0  0  0
   -8.3035    8.6211   -2.6006 C   0  0  0  0  0  0  0  0  0  0  0  0
   -7.5003    8.4444   -1.4758 C   0  0  0  0  0  0  0  0  0  0  0  0
   -7.7098    5.0628   -1.2014 H   0  0  0  0  0  0  0  0  0  0  0  0
   -9.0935    5.3789   -3.2180 H   0  0  0  0  0  0  0  0  0  0  0  0
   -9.5294    7.6705   -4.0709 H   0  0  0  0  0  0  0  0  0  0  0  0
   -8.4705    9.6119   -2.9925 H   0  0  0  0  0  0  0  0  0  0  0  0
   -7.0579    9.3041   -0.9946 H   0  0  0  0  0  0  0  0  0  0  0  0
   -6.4407    6.9550    0.3012 C   0  0  0  0  0  0  0  0  0  0  0  0
   -6.0680    7.9447    0.6666 H   0  0  0  0  0  0  0  0  0  0  0  0
   -7.0625    6.4736    1.0971 H   0  0  0  0  0  0  0  0  0  0  0  0
   -5.5702    6.2954    0.0579 H   0  0  0  0  0  0  0  0  0  0  0  0
  1  2  2  0
  1  6  1  0
  1 12  1  0
  2  3  1  0
  2  7  1  0
  3  4  2  0
  3  8  1  0
  4  5  1  0
  4  9  1  0
  5  6  2  0
  5 10  1  0
  6 11  1  0
 12 13  1  0
 12 14  1  0
 12 15  1  0
M  END
>  <r_exp_dg>  (2) 
-5.48

>  <experimental dG reference units>  (2) 
kcal/mol

>  <experimental dG reference field>  (2) 
r_exp_dg

>  <kJ/mol experimental dG>  (2) 
-22.928320000000003

>  <kcal/mol experimental dG>  (2) 
-5.48

$$$$
ethyl benzene
     RDKit          3D

 18 18  0  0  1  0  0  0  0  0999 V2000
   -7.2944    7.1637   -0.9565 C   0  0  0  0  0  0  0  0  0  0  0  0
   -7.8666    6.0570   -1.5923 C   0  0  0  0  0  0  0  0  0  0  0  0
   -8.6603    6.2343   -2.7246 C   0  0  0  0  0  0  0  0  0  0  0  0
   -8.8944    7.5191   -3.2148 C   0  0  0  0  0  0  0  0  0  0  0  0
   -8.3035    8.6210   -2.6005 C   0  0  0  0  0  0  0  0  0  0  0  0
   -7.5004    8.4443   -1.4758 C   0  0  0  0  0  0  0  0  0  0  0  0
   -6.4979    6.9780    0.3223 C   0  0  0  0  0  0  0  0  0  0  0  0
   -7.4000    7.0133    1.5715 C   0  0  0  0  0  0  0  0  0  0  0  0
   -7.7099    5.0629   -1.2014 H   0  0  0  0  0  0  0  0  0  0  0  0
   -9.0934    5.3789   -3.2180 H   0  0  0  0  0  0  0  0  0  0  0  0
   -9.5294    7.6705   -4.0709 H   0  0  0  0  0  0  0  0  0  0  0  0
   -8.4705    9.6119   -2.9925 H   0  0  0  0  0  0  0  0  0  0  0  0
   -7.0579    9.3041   -0.9946 H   0  0  0  0  0  0  0  0  0  0  0  0
   -5.7032    7.7224    0.3851 H   0  0  0  0  0  0  0  0  0  0  0  0
   -5.9879    6.0152    0.2721 H   0  0  0  0  0  0  0  0  0  0  0  0
   -6.8615    6.5954    2.4239 H   0  0  0  0  0  0  0  0  0  0  0  0
   -8.2611    6.3695    1.3905 H   0  0  0  0  0  0  0  0  0  0  0  0
   -7.7215    8.0330    1.7836 H   0  0  0  0  0  0  0  0  0  0  0  0
  1  2  2  0
  1  6  1  0
  1  7  1  0
  2  3  1  0
  2  9  1  0
  3  4  2  0
  3 10  1  0
  4  5  1  0
  4 11  1  0
  5  6  2  0
  5 12  1  0
  6 13  1  0
  7  8  1  0
  7 14  1  0
  7 15  1  0
  8 16  1  0
  8 17  1  0
  8 18  1  0
M  END
>  <r_exp_dg>  (3) 
-5.72

>  <experimental dG reference units>  (3) 
kcal/mol

>  <experimental dG reference field>  (3) 
r_exp_dg

>  <kJ/mol experimental dG>  (3) 
-23.932479999999998

>  <kcal/mol experimental dG>  (3) 
-5.72

$$$$
ortho methyl ethyl benzene
     RDKit          3D

 21 21  0  0  1  0  0  0  0  0999 V2000
   -7.2944    7.1637   -0.9565 C   0  0  0  0  0  0  0  0  0  0  0  0
   -7.8666    6.0570   -1.5923 C   0  0  0  0  0  0  0  0  0  0  0  0
   -8.6603    6.2343   -2.7246 C   0  0  0  0  0  0  0  0  0  0  0  0
   -8.8944    7.5191   -3.2148 C   0  0  0  0  0  0  0  0  0  0  0  0
   -8.3035    8.6210   -2.6005 C   0  0  0  0  0  0  0  0  0  0  0  0
   -7.5004    8.4443   -1.4758 C   0  0  0  0  0  0  0  0  0  0  0  0
   -6.4979    6.9780    0.3223 C   0  0  0  0  0  0  0  0  0  0  0  0
   -7.4000    7.0133    1.5715 C   0  0  0  0  0  0  0  0  0  0  0  0
   -9.0934    5.3789   -3.2180 H   0  0  0  0  0  0  0  0  0  0  0  0
   -9.5294    7.6705   -4.0709 H   0  0  0  0  0  0  0  0  0  0  0  0
   -8.4705    9.6119   -2.9925 H   0  0  0  0  0  0  0  0  0  0  0  0
   -7.0579    9.3041   -0.9946 H   0  0  0  0  0  0  0  0  0  0  0  0
   -5.7032    7.7224    0.3851 H   0  0  0  0  0  0  0  0  0  0  0  0
   -5.9879    6.0152    0.2721 H   0  0  0  0  0  0  0  0  0  0  0  0
   -6.8615    6.5954    2.4239 H   0  0  0  0  0  0  0  0  0  0  0  0
   -8.2611    6.3695    1.3905 H   0  0  0  0  0  0  0  0  0  0  0  0
   -7.7215    8.0330    1.7836 H   0  0  0  0  0  0  0  0  0  0  0  0
   -7.6456    4.6555   -1.0412 C   0  0  0  0  0  0  0  0  0  0  0  0
   -8.1808    3.9130   -1.6848 H   0  0  0  0  0  0  0  0  0  0  0  0
   -6.5508    4.4248   -1.0369 H   0  0  0  0  0  0  0  0  0  0  0  0
   -8.0429    4.5986    0.0032 H   0  0  0  0  0  0  0  0  0  0  0  0
  1  2  2  0
  1  6  1  0
  1  7  1  0
  2  3  1  0
  2 18  1  0
  3  4  2  0
  3  9  1  0
  4  5  1  0
  4 10  1  0
  5  6  2  0
  5 11  1  0
  6 12  1  0
  7  8  1  0
  7 13  1  0
  7 14  1  0
  8 15  1  0
  8 16  1  0
  8 17  1  0
 18 19  1  0
 18 20  1  0
 18 21  1  0
M  END
>  <r_exp_dg>  (4) 
-4.53

>  <experimental dG reference units>  (4) 
kcal/mol

>  <experimental dG reference field>  (4) 
r_exp_dg

>  <kJ/mol experimental dG>  (4) 
-18.95352

>  <kcal/mol experimental dG>  (4) 
-4.53

$$$$
m-xylene
     RDKit          3D

 18 18  0  0  1  0  0  0  0  0999 V2000
   -7.2944    7.1637   -0.9565 C   0  0  0  0  0  0  0  0  0  0  0  0
   -7.8666    6.0570   -1.5923 C   0  0  0  0  0  0  0  0  0  0  0  0
   -8.6603    6.2343   -2.7246 C   0  0  0  0  0  0  0  0  0  0  0  0
   -8.8944    7.5191   -3.2148 C   0  0  0  0  0  0  0  0  0  0  0  0
   -8.3035    8.6210   -2.6005 C   0  0  0  0  0  0  0  0  0  0  0  0
   -7.5004    8.4443   -1.4758 C   0  0  0  0  0  0  0  0  0  0  0  0
   -6.4979    6.9780    0.3223 C   0  0  0  0  0  0  0  0  0  0  0  0
   -7.7099    5.0629   -1.2014 H   0  0  0  0  0  0  0  0  0  0  0  0
   -9.5294    7.6705   -4.0709 H   0  0  0  0  0  0  0  0  0  0  0  0
   -8.4705    9.6119   -2.9925 H   0  0  0  0  0  0  0  0  0  0  0  0
   -7.0579    9.3041   -0.9946 H   0  0  0  0  0  0  0  0  0  0  0  0
   -5.7032    7.7224    0.3851 H   0  0  0  0  0  0  0  0  0  0  0  0
   -5.9879    6.0152    0.2721 H   0  0  0  0  0  0  0  0  0  0  0  0
   -7.1478    7.0286    1.1958 H   0  0  0  0  0  0  0  0  0  0  0  0
   -9.2717    5.0269   -3.4210 C   0  0  0  0  0  0  0  0  0  0  0  0
   -9.8705    5.3683   -4.3024 H   0  0  0  0  0  0  0  0  0  0  0  0
   -8.4562    4.3431   -3.7664 H   0  0  0  0  0  0  0  0  0  0  0  0
   -9.9377    4.4818   -2.7061 H   0  0  0  0  0  0  0  0  0  0  0  0
  1  2  2  0
  1  6  1  0
  1  7  1  0
  2  3  1  0
  2  8  1  0
  3  4  2  0
  3 15  1  0
  4  5  1  0
  4  9  1  0
  5  6  2  0
  5 10  1  0
  6 11  1  0
  7 12  1  0
  7 13  1  0
  7 14  1  0
 15 16  1  0
 15 17  1  0
 15 18  1  0
M  END
>  <r_exp_dg>  (5) 
-4.72

>  <experimental dG reference units>  (5) 
kcal/mol

>  <experimental dG reference field>  (5) 
r_exp_dg

>  <kJ/mol experimental dG>  (5) 
-19.74848

>  <kcal/mol experimental dG>  (5) 
-4.72

$$$$
p-xylene
     RDKit          3D

 18 18  0  0  1  0  0  0  0  0999 V2000
   -7.2944    7.1637   -0.9565 C   0  0  0  0  0  0  0  0  0  0  0  0
   -7.8666    6.0570   -1.5923 C   0  0  0  0  0  0  0  0  0  0  0  0
   -8.6603    6.2343   -2.7246 C   0  0  0  0  0  0  0  0  0  0  0  0
   -8.8944    7.5191   -3.2148 C   0  0  0  0  0  0  0  0  0  0  0  0
   -8.3035    8.6210   -2.6005 C   0  0  0  0  0  0  0  0  0  0  0  0
   -7.5004    8.4443   -1.4758 C   0  0  0  0  0  0  0  0  0  0  0  0
   -6.4979    6.9780    0.3223 C   0  0  0  0  0  0  0  0  0  0  0  0
   -9.0934    5.3789   -3.2180 H   0  0  0  0  0  0  0  0  0  0  0  0
   -8.4705    9.6119   -2.9925 H   0  0  0  0  0  0  0  0  0  0  0  0
   -7.0579    9.3041   -0.9946 H   0  0  0  0  0  0  0  0  0  0  0  0
   -5.7032    7.7224    0.3851 H   0  0  0  0  0  0  0  0  0  0  0  0
   -5.9879    6.0152    0.2721 H   0  0  0  0  0  0  0  0  0  0  0  0
   -7.1478    7.0286    1.1958 H   0  0  0  0  0  0  0  0  0  0  0  0
   -9.7921    7.7332   -4.4251 C   0  0  0  0  0  0  0  0  0  0  0  0
   -9.8507    8.8261   -4.6574 H   0  0  0  0  0  0  0  0  0  0  0  0
   -9.3684    7.1871   -5.3050 H   0  0  0  0  0  0  0  0  0  0  0  0
  -10.8172    7.3437   -4.2027 H   0  0  0  0  0  0  0  0  0  0  0  0
   -7.6937    5.0633   -1.2062 H   0  0  0  0  0  0  0  0  0  0  0  0
  1  2  2  0
  1  6  1  0
  1  7  1  0
  2  3  1  0
  2 18  1  0
  3  4  2  0
  3  8  1  0
  4  5  1  0
  4 14  1  0
  5  6  2  0
  5  9  1  0
  6 10  1  0
  7 11  1  0
  7 12  1  0
  7 13  1  0
 14 15  1  0
 14 16  1  0
 14 17  1  0
M  END
>  <r_exp_dg>  (6) 
-4.63

>  <experimental dG reference units>  (6) 
kcal/mol

>  <experimental dG reference field>  (6) 
r_exp_dg

>  <kJ/mol experimental dG>  (6) 
-19.37192

>  <kcal/mol experimental dG>  (6) 
-4.63

$$$$
o-xylene
     RDKit          3D

 18 18  0  0  1  0  0  0  0  0999 V2000
   -7.2944    7.1637   -0.9565 C   0  0  0  0  0  0  0  0  0  0  0  0
   -7.8666    6.0570   -1.5923 C   0  0  0  0  0  0  0  0  0  0  0  0
   -8.6603    6.2343   -2.7246 C   0  0  0  0  0  0  0  0  0  0  0  0
   -8.8944    7.5191   -3.2148 C   0  0  0  0  0  0  0  0  0  0  0  0
   -8.3035    8.6210   -2.6005 C   0  0  0  0  0  0  0  0  0  0  0  0
   -7.5004    8.4443   -1.4758 C   0  0  0  0  0  0  0  0  0  0  0  0
   -6.4979    6.9780    0.3223 C   0  0  0  0  0  0  0  0  0  0  0  0
   -9.0934    5.3789   -3.2180 H   0  0  0  0  0  0  0  0  0  0  0  0
   -9.5294    7.6705   -4.0709 H   0  0  0  0  0  0  0  0  0  0  0  0
   -8.4705    9.6119   -2.9925 H   0  0  0  0  0  0  0  0  0  0  0  0
   -7.0579    9.3041   -0.9946 H   0  0  0  0  0  0  0  0  0  0  0  0
   -5.7032    7.7224    0.3851 H   0  0  0  0  0  0  0  0  0  0  0  0
   -5.9879    6.0152    0.2721 H   0  0  0  0  0  0  0  0  0  0  0  0
   -7.1478    7.0286    1.1958 H   0  0  0  0  0  0  0  0  0  0  0  0
   -7.6456    4.6555   -1.0412 C   0  0  0  0  0  0  0  0  0  0  0  0
   -8.1808    3.9130   -1.6848 H   0  0  0  0  0  0  0  0  0  0  0  0
   -6.5508    4.4248   -1.0369 H   0  0  0  0  0  0  0  0  0  0  0  0
   -8.0429    4.5986    0.0032 H   0  0  0  0  0  0  0  0  0  0  0  0
  1  2  2  0
  1  6  1  0
  1  7  1  0
  2  3  1  0
  2 15  1  0
  3  4  2  0
  3  8  1  0
  4  5  1  0
  4  9  1  0
  5  6  2  0
  5 10  1  0
  6 11  1  0
  7 12  1  0
  7 13  1  0
  7 14  1  0
 15 16  1  0
 15 17  1  0
 15 18  1  0
M  END
>  <r_exp_dg>  (7) 
-4.57

>  <experimental dG reference units>  (7) 
kcal/mol

>  <experimental dG reference field>  (7) 
r_exp_dg

>  <kJ/mol experimental dG>  (7) 
-19.120880000000003

>  <kcal/mol experimental dG>  (7) 
-4.57

$$$$
butyl benzene
     RDKit          3D

 24 24  0  0  1  0  0  0  0  0999 V2000
   -7.2944    7.1637   -0.9565 C   0  0  0  0  0  0  0  0  0  0  0  0
   -7.8666    6.0570   -1.5923 C   0  0  0  0  0  0  0  0  0  0  0  0
   -8.6603    6.2343   -2.7246 C   0  0  0  0  0  0  0  0  0  0  0  0
   -8.8944    7.5191   -3.2148 C   0  0  0  0  0  0  0  0  0  0  0  0
   -8.3035    8.6210   -2.6005 C   0  0  0  0  0  0  0  0  0  0  0  0
   -7.5004    8.4443   -1.4758 C   0  0  0  0  0  0  0  0  0  0  0  0
   -6.4979    6.9780    0.3223 C   0  0  0  0  0  0  0  0  0  0  0  0
   -7.4000    7.0133    1.5715 C   0  0  0  0  0  0  0  0  0  0  0  0
   -7.9542    8.3874    1.9637 C   0  0  0  0  0  0  0  0  0  0  0  0
   -6.9209    9.3102    2.5970 C   0  0  0  0  0  0  0  0  0  0  0  0
   -7.7099    5.0629   -1.2014 H   0  0  0  0  0  0  0  0  0  0  0  0
   -9.0934    5.3789   -3.2180 H   0  0  0  0  0  0  0  0  0  0  0  0
   -9.5294    7.6705   -4.0709 H   0  0  0  0  0  0  0  0  0  0  0  0
   -8.4705    9.6119   -2.9925 H   0  0  0  0  0  0  0  0  0  0  0  0
   -7.0579    9.3041   -0.9946 H   0  0  0  0  0  0  0  0  0  0  0  0
   -5.7032    7.7224    0.3851 H   0  0  0  0  0  0  0  0  0  0  0  0
   -5.9879    6.0152    0.2721 H   0  0  0  0  0  0  0  0  0  0  0  0
   -6.8615    6.5954    2.4239 H   0  0  0  0  0  0  0  0  0  0  0  0
   -8.2611    6.3695    1.3905 H   0  0  0  0  0  0  0  0  0  0  0  0
   -8.7574    8.2357    2.6817 H   0  0  0  0  0  0  0  0  0  0  0  0
   -8.3961    8.8844    1.1035 H   0  0  0  0  0  0  0  0  0  0  0  0
   -7.3672   10.2723    2.8440 H   0  0  0  0  0  0  0  0  0  0  0  0
   -6.5248    8.8767    3.5157 H   0  0  0  0  0  0  0  0  0  0  0  0
   -6.0868    9.4992    1.9206 H   0  0  0  0  0  0  0  0  0  0  0  0
  1  2  2  0
  1  6  1  0
  1  7  1  0
  2  3  1  0
  2 11  1  0
  3  4  2  0
  3 12  1  0
  4  5  1  0
  4 13  1  0
  5  6  2  0
  5 14  1  0
  6 15  1  0
  7  8  1  0
  7 16  1  0
  7 17  1  0
  8  9  1  0
  8 18  1  0
  8 19  1  0
  9 10  1  0
  9 20  1  0
  9 21  1  0
 10 22  1  0
 10 23  1  0
 10 24  1  0
M  END
>  <r_exp_dg>  (8) 
-6.66

>  <experimental dG reference units>  (8) 
kcal/mol

>  <experimental dG reference field>  (8) 
r_exp_dg

>  <kJ/mol experimental dG>  (8) 
-27.865440000000003

>  <kcal/mol experimental dG>  (8) 
-6.66

$$$$
propyl benzene
     RDKit          3D

 21 21  0  0  1  0  0  0  0  0999 V2000
   -7.2944    7.1637   -0.9565 C   0  0  0  0  0  0  0  0  0  0  0  0
   -7.8666    6.0570   -1.5923 C   0  0  0  0  0  0  0  0  0  0  0  0
   -8.6603    6.2343   -2.7246 C   0  0  0  0  0  0  0  0  0  0  0  0
   -8.8944    7.5191   -3.2148 C   0  0  0  0  0  0  0  0  0  0  0  0
   -8.3035    8.6210   -2.6005 C   0  0  0  0  0  0  0  0  0  0  0  0
   -7.5004    8.4443   -1.4758 C   0  0  0  0  0  0  0  0  0  0  0  0
   -6.4979    6.9780    0.3223 C   0  0  0  0  0  0  0  0  0  0  0  0
   -7.4000    7.0133    1.5715 C   0  0  0  0  0  0  0  0  0  0  0  0
   -7.9542    8.3874    1.9637 C   0  0  0  0  0  0  0  0  0  0  0  0
   -7.7099    5.0629   -1.2014 H   0  0  0  0  0  0  0  0  0  0  0  0
   -9.0934    5.3789   -3.2180 H   0  0  0  0  0  0  0  0  0  0  0  0
   -9.5294    7.6705   -4.0709 H   0  0  0  0  0  0  0  0  0  0  0  0
   -8.4705    9.6119   -2.9925 H   0  0  0  0  0  0  0  0  0  0  0  0
   -7.0579    9.3041   -0.9946 H   0  0  0  0  0  0  0  0  0  0  0  0
   -5.7032    7.7224    0.3851 H   0  0  0  0  0  0  0  0  0  0  0  0
   -5.9879    6.0152    0.2721 H   0  0  0  0  0  0  0  0  0  0  0  0
   -6.8615    6.5954    2.4239 H   0  0  0  0  0  0  0  0  0  0  0  0
   -8.2611    6.3695    1.3905 H   0  0  0  0  0  0  0  0  0  0  0  0
   -8.7574    8.2357    2.6817 H   0  0  0  0  0  0  0  0  0  0  0  0
   -8.3961    8.8844    1.1035 H   0  0  0  0  0  0  0  0  0  0  0  0
   -7.1678    9.0052    2.3975 H   0  0  0  0  0  0  0  0  0  0  0  0
  1  2  2  0
  1  6  1  0
  1  7  1  0
  2  3  1  0
  2 10  1  0
  3  4  2  0
  3 11  1  0
  4  5  1  0
  4 12  1  0
  5  6  2  0
  5 13  1  0
  6 14  1  0
  7  8  1  0
  7 15  1  0
  7 16  1  0
  8  9  1  0
  8 17  1  0
  8 18  1  0
  9 19  1  0
  9 20  1  0
  9 21  1  0
M  END
>  <r_exp_dg>  (9) 
-6.51

>  <experimental dG reference units>  (9) 
kcal/mol

>  <experimental dG reference field>  (9) 
r_exp_dg

>  <kJ/mol experimental dG>  (9) 
-27.23784

>  <kcal/mol experimental dG>  (9) 
-6.51

$$$$
para methyl ethyl benzene
     RDKit          3D

 21 21  0  0  1  0  0  0  0  0999 V2000
   -7.2944    7.1637   -0.9565 C   0  0  0  0  0  0  0  0  0  0  0  0
   -7.8666    6.0570   -1.5923 C   0  0  0  0  0  0  0  0  0  0  0  0
   -8.6603    6.2343   -2.7246 C   0  0  0  0  0  0  0  0  0  0  0  0
   -8.8944    7.5191   -3.2148 C   0  0  0  0  0  0  0  0  0  0  0  0
   -8.3035    8.6210   -2.6005 C   0  0  0  0  0  0  0  0  0  0  0  0
   -7.5004    8.4443   -1.4758 C   0  0  0  0  0  0  0  0  0  0  0  0
   -6.4979    6.9780    0.3223 C   0  0  0  0  0  0  0  0  0  0  0  0
   -7.4000    7.0133    1.5715 C   0  0  0  0  0  0  0  0  0  0  0  0
   -7.7099    5.0629   -1.2014 H   0  0  0  0  0  0  0  0  0  0  0  0
   -9.0934    5.3789   -3.2180 H   0  0  0  0  0  0  0  0  0  0  0  0
   -8.4705    9.6119   -2.9925 H   0  0  0  0  0  0  0  0  0  0  0  0
   -7.0579    9.3041   -0.9946 H   0  0  0  0  0  0  0  0  0  0  0  0
   -5.7032    7.7224    0.3851 H   0  0  0  0  0  0  0  0  0  0  0  0
   -5.9879    6.0152    0.2721 H   0  0  0  0  0  0  0  0  0  0  0  0
   -6.8615    6.5954    2.4239 H   0  0  0  0  0  0  0  0  0  0  0  0
   -8.2611    6.3695    1.3905 H   0  0  0  0  0  0  0  0  0  0  0  0
   -7.7215    8.0330    1.7836 H   0  0  0  0  0  0  0  0  0  0  0  0
   -9.7921    7.7332   -4.4251 C   0  0  0  0  0  0  0  0  0  0  0  0
   -9.8507    8.8261   -4.6574 H   0  0  0  0  0  0  0  0  0  0  0  0
   -9.3684    7.1871   -5.3050 H   0  0  0  0  0  0  0  0  0  0  0  0
  -10.8172    7.3437   -4.2027 H   0  0  0  0  0  0  0  0  0  0  0  0
  1  2  2  0
  1  6  1  0
  1  7  1  0
  2  3  1  0
  2  9  1  0
  3  4  2  0
  3 10  1  0
  4  5  1  0
  4 18  1  0
  5  6  2  0
  5 11  1  0
  6 12  1  0
  7  8  1  0
  7 13  1  0
  7 14  1  0
  8 15  1  0
  8 16  1  0
  8 17  1  0
 18 19  1  0
 18 20  1  0
 18 21  1  0
M  END
>  <r_exp_dg>  (10) 
-5.38

>  <experimental dG reference units>  (10) 
kcal/mol

>  <experimental dG reference field>  (10) 
r_exp_dg

>  <kJ/mol experimental dG>  (10) 
-22.50992

>  <kcal/mol experimental dG>  (10) 
-5.38

$$$$
benzene
     RDKit          3D

 12 12  0  0  1  0  0  0  0  0999 V2000
   -7.2944    7.1637   -0.9565 C   0  0  0  0  0  0  0  0  0  0  0  0
   -7.8666    6.0570   -1.5923 C   0  0  0  0  0  0  0  0  0  0  0  0
   -8.6603    6.2343   -2.7246 C   0  0  0  0  0  0  0  0  0  0  0  0
   -8.8944    7.5191   -3.2148 C   0  0  0  0  0  0  0  0  0  0  0  0
   -8.3035    8.6210   -2.6005 C   0  0  0  0  0  0  0  0  0  0  0  0
   -7.5004    8.4443   -1.4758 C   0  0  0  0  0  0  0  0  0  0  0  0
   -7.7099    5.0629   -1.2014 H   0  0  0  0  0  0  0  0  0  0  0  0
   -9.0934    5.3789   -3.2180 H   0  0  0  0  0  0  0  0  0  0  0  0
   -9.5294    7.6705   -4.0709 H   0  0  0  0  0  0  0  0  0  0  0  0
   -8.4705    9.6119   -2.9925 H   0  0  0  0  0  0  0  0  0  0  0  0
   -7.0579    9.3041   -0.9946 H   0  0  0  0  0  0  0  0  0  0  0  0
   -6.6962    7.0264   -0.0679 H   0  0  0  0  0  0  0  0  0  0  0  0
  1  2  2  0
  1  6  1  0
  1 12  1  0
  2  3  1  0
  2  7  1  0
  3  4  2  0
  3  8  1  0
  4  5  1  0
  4  9  1  0
  5  6  2  0
  5 10  1  0
  6 11  1  0
M  END
>  <r_exp_dg>  (11) 
-5.16

>  <experimental dG reference units>  (11) 
kcal/mol

>  <experimental dG reference field>  (11) 
r_exp_dg

>  <kJ/mol experimental dG>  (11) 
-21.58944

>  <kcal/mol experimental dG>  (11) 
-5.16

$$$$
isobutyl benzene
     RDKit          3D

 24 24  0  0  1  0  0  0  0  0999 V2000
   -7.2944    7.1637   -0.9565 C   0  0  0  0  0  0  0  0  0  0  0  0
   -7.8666    6.0570   -1.5923 C   0  0  0  0  0  0  0  0  0  0  0  0
   -8.6603    6.2343   -2.7246 C   0  0  0  0  0  0  0  0  0  0  0  0
   -8.8944    7.5191   -3.2148 C   0  0  0  0  0  0  0  0  0  0  0  0
   -8.3035    8.6210   -2.6005 C   0  0  0  0  0  0  0  0  0  0  0  0
   -7.5004    8.4443   -1.4758 C   0  0  0  0  0  0  0  0  0  0  0  0
   -6.4979    6.9780    0.3223 C   0  0  0  0  0  0  0  0  0  0  0  0
   -7.4000    7.0133    1.5715 C   0  0  0  0  0  0  0  0  0  0  0  0
   -7.9542    8.3874    1.9637 C   0  0  0  0  0  0  0  0  0  0  0  0
   -7.7099    5.0629   -1.2014 H   0  0  0  0  0  0  0  0  0  0  0  0
   -9.0934    5.3789   -3.2180 H   0  0  0  0  0  0  0  0  0  0  0  0
   -9.5294    7.6705   -4.0709 H   0  0  0  0  0  0  0  0  0  0  0  0
   -8.4705    9.6119   -2.9925 H   0  0  0  0  0  0  0  0  0  0  0  0
   -7.0579    9.3041   -0.9946 H   0  0  0  0  0  0  0  0  0  0  0  0
   -5.7032    7.7224    0.3851 H   0  0  0  0  0  0  0  0  0  0  0  0
   -5.9879    6.0152    0.2721 H   0  0  0  0  0  0  0  0  0  0  0  0
   -8.2611    6.3695    1.3905 H   0  0  0  0  0  0  0  0  0  0  0  0
   -8.7574    8.2357    2.6817 H   0  0  0  0  0  0  0  0  0  0  0  0
   -8.3961    8.8844    1.1035 H   0  0  0  0  0  0  0  0  0  0  0  0
   -7.1678    9.0052    2.3975 H   0  0  0  0  0  0  0  0  0  0  0  0
   -6.6471    6.4290    2.7633 C   0  0  0  0  0  0  0  0  0  0  0  0
   -7.3039    6.4556    3.6688 H   0  0  0  0  0  0  0  0  0  0  0  0
   -6.3610    5.3703    2.5411 H   0  0  0  0  0  0  0  0  0  0  0  0
   -5.7245    7.0325    2.9539 H   0  0  0  0  0  0  0  0  0  0  0  0
  1  2  2  0
  1  6  1  0
  1  7  1  0
  2  3  1  0
  2 10  1  0
  3  4  2  0
  3 11  1  0
  4  5  1  0
  4 12  1  0
  5  6  2  0
  5 13  1  0
  6 14  1  0
  7  8  1  0
  7 15  1  0
  7 16  1  0
  8  9  1  0
  8 17  1  0
  8 21  1  0
  9 18  1  0
  9 19  1  0
  9 20  1  0
 21 22  1  0
 21 23  1  0
 21 24  1  0
M  END
>  <r_exp_dg>  (12) 
-6.44

>  <experimental dG reference units>  (12) 
kcal/mol

>  <experimental dG reference field>  (12) 
r_exp_dg

>  <kJ/mol experimental dG>  (12) 
-26.944960000000002

>  <kcal/mol experimental dG>  (12) 
-6.44

$$$$
