2
     RDKit          3D

 22 23  0  0  1  0  0  0  0  0999 V2000
  -22.1080    8.0350   -2.7350 C   0  0  0  0  0  0  0  0  0  0  0  0
  -22.9880    8.0250   -0.4820 C   0  0  0  0  0  0  0  0  0  0  0  0
  -19.8600    6.0020   -0.5610 C   0  0  0  0  0  0  0  0  0  0  0  0
  -18.9190    5.6570   -1.5550 C   0  0  0  0  0  0  0  0  0  0  0  0
  -23.0690    8.4210   -1.8010 C   0  0  0  0  0  0  0  0  0  0  0  0
  -21.9540    7.2300   -0.0600 C   0  0  0  0  0  0  0  0  0  0  0  0
  -20.9580    6.8180   -0.9600 C   0  0  0  0  0  0  0  0  0  0  0  0
  -19.7460    5.6110    0.7560 N   0  0  0  0  0  0  0  0  0  0  0  0
  -19.0890    6.0950   -2.8100 N   0  0  0  0  0  0  0  0  0  0  0  0
  -20.0760    6.8260   -3.1700 N   0  0  0  0  0  0  0  0  0  0  0  0
  -21.0340    7.2180   -2.3180 C   0  0  0  0  0  0  0  0  0  0  0  0
  -17.7130    4.8590   -1.2960 C   0  0  0  0  0  0  0  0  0  0  0  0
  -16.7710    4.7780   -2.2590 N   0  0  0  0  0  0  0  0  0  0  0  0
  -17.5250    4.3260   -0.2190 O   0  0  0  0  0  0  0  0  0  0  0  0
  -23.7416    8.3413    0.2240 H   0  0  0  0  0  0  0  0  0  0  0  0
  -23.8982    9.0427   -2.1048 H   0  0  0  0  0  0  0  0  0  0  0  0
  -21.9009    6.9156    0.9719 H   0  0  0  0  0  0  0  0  0  0  0  0
  -20.4489    5.8861    1.4271 H   0  0  0  0  0  0  0  0  0  0  0  0
  -18.9596    5.0495    1.0498 H   0  0  0  0  0  0  0  0  0  0  0  0
  -15.9340    4.2349   -2.1023 H   0  0  0  0  0  0  0  0  0  0  0  0
  -16.9030    5.2605   -3.1364 H   0  0  0  0  0  0  0  0  0  0  0  0
  -22.1911    8.3606   -3.7614 H   0  0  0  0  0  0  0  0  0  0  0  0
  1  5  2  0
  1 11  1  0
  1 22  1  0
  2  5  1  0
  2  6  2  0
  2 15  1  0
  3  4  2  0
  3  7  1  0
  3  8  1  0
  4  9  1  0
  4 12  1  0
  5 16  1  0
  6  7  1  0
  6 17  1  0
  7 11  2  0
  8 18  1  0
  8 19  1  0
  9 10  2  0
 10 11  1  0
 12 13  1  0
 12 14  2  0
 13 20  1  0
 13 21  1  0
M  END
>  <r_exp_dg>  (1) 
-7.68793

>  <experimental dG reference units>  (1) 
kcal/mol

>  <experimental dG reference field>  (1) 
r_exp_dg

>  <kJ/mol experimental dG>  (1) 
-32.16629912

>  <kcal/mol experimental dG>  (1) 
-7.687929999999999

>  <AmberAM1BCCCache>  (1) 
gASV/QEAAAAAAABdlCiMFm51bXB5Ll9jb3JlLm11bHRpYXJyYXmUjAZzY2FsYXKUk5SMBW51bXB5lIwFZHR5cGWUk5SMAmY4lImIh5RSlChLA4wBPJROTk5K/////0r/////SwB0lGJDCIvbv4r9Cv6/lIaUUpRoA2gJQwh6p4GVjPP3v5SGlFKUaANoCUMI1HL34cXsA0CUhpRSlGgDaAlDCMRr+vdzSvg/lIaUUpRoA2gJQwgi88ENEu/0v5SGlFKUaANoCUMIgQ/aGmTN87+UhpRSlGgDaAlDCB+8dS5vAAHAlIaUUpRoA2gJQwi+eFxPbLAjwJSGlFKUaANoCUMI77CJRP2SB8CUhpRSlGgDaAlDCG7xJmxTNg/AlIaUUpRoA2gJQwjxupQYgQwRQJSGlFKUaANoCUMIx6JG1xY5HECUhpRSlGgDaAlDCLUG+fUQXR7AlIaUUpRoA2gJQwj80nIS0GcfwJSGlFKUaANoCUMIvW5Re+g2+j+UhpRSlGgDaAlDCEZlScx3l/o/lIaUUpRoA2gJQwgFnnnmG1T4P5SGlFKUaANoCUMIhZwpWEBTFUCUhpRSlGgDaAlDCIWcKVhAUxVAlIaUUpRoA2gJQwj7DiCPkwgOQJSGlFKUaANoCUMI+w4gj5MIDkCUhpRSlGgDaAlDCOQUhfw5zP0/lIaUUpRlLg==

$$$$
7
     RDKit          3D

 32 34  0  0  1  0  0  0  0  0999 V2000
  -22.1080    8.0350   -2.7350 C   0  0  0  0  0  0  0  0  0  0  0  0
  -22.9880    8.0250   -0.4820 C   0  0  0  0  0  0  0  0  0  0  0  0
  -19.8600    6.0020   -0.5610 C   0  0  0  0  0  0  0  0  0  0  0  0
  -18.9190    5.6570   -1.5550 C   0  0  0  0  0  0  0  0  0  0  0  0
  -23.0690    8.4210   -1.8010 C   0  0  0  0  0  0  0  0  0  0  0  0
  -21.9540    7.2300   -0.0600 C   0  0  0  0  0  0  0  0  0  0  0  0
  -20.9580    6.8180   -0.9600 C   0  0  0  0  0  0  0  0  0  0  0  0
  -19.7460    5.6110    0.7560 N   0  0  0  0  0  0  0  0  0  0  0  0
  -19.0890    6.0950   -2.8100 N   0  0  0  0  0  0  0  0  0  0  0  0
  -20.0760    6.8260   -3.1700 N   0  0  0  0  0  0  0  0  0  0  0  0
  -21.0340    7.2180   -2.3180 C   0  0  0  0  0  0  0  0  0  0  0  0
  -17.7130    4.8590   -1.2960 C   0  0  0  0  0  0  0  0  0  0  0  0
  -16.7710    4.7780   -2.2590 N   0  0  0  0  0  0  0  0  0  0  0  0
  -17.5250    4.3260   -0.2190 O   0  0  0  0  0  0  0  0  0  0  0  0
  -23.7416    8.3413    0.2240 H   0  0  0  0  0  0  0  0  0  0  0  0
  -23.8982    9.0427   -2.1048 H   0  0  0  0  0  0  0  0  0  0  0  0
  -21.9009    6.9156    0.9719 H   0  0  0  0  0  0  0  0  0  0  0  0
  -20.4489    5.8861    1.4271 H   0  0  0  0  0  0  0  0  0  0  0  0
  -18.9596    5.0495    1.0498 H   0  0  0  0  0  0  0  0  0  0  0  0
  -15.9340    4.2349   -2.1023 H   0  0  0  0  0  0  0  0  0  0  0  0
  -16.9030    5.2605   -3.1364 H   0  0  0  0  0  0  0  0  0  0  0  0
  -22.2206    8.4761   -4.1254 C   0  0  0  0  0  0  0  0  0  0  0  0
  -23.1293    8.0154   -4.9922 C   0  0  0  0  0  0  0  0  0  0  0  0
  -22.9121    8.7028   -6.2711 N   0  0  0  0  0  0  0  0  0  0  0  0
  -21.8835    9.5427   -6.1098 N   0  0  0  0  0  0  0  0  0  0  0  0
  -21.3080    9.5090   -4.7227 C   0  0  0  0  0  0  0  0  0  0  0  0
  -20.5313    9.9565   -4.1202 H   0  0  0  0  0  0  0  0  0  0  0  0
  -23.8432    7.2677   -4.6798 H   0  0  0  0  0  0  0  0  0  0  0  0
  -21.4164   10.4041   -7.2717 C   0  0  0  0  0  0  0  0  0  0  0  0
  -20.5746   11.0191   -6.9534 H   0  0  0  0  0  0  0  0  0  0  0  0
  -21.1061    9.7639   -8.0975 H   0  0  0  0  0  0  0  0  0  0  0  0
  -22.2329   11.0479   -7.5987 H   0  0  0  0  0  0  0  0  0  0  0  0
  1  5  1  0
  1 11  2  0
  1 22  1  0
  2  5  2  0
  2  6  1  0
  2 15  1  0
  3  4  2  0
  3  7  1  0
  3  8  1  0
  4  9  1  0
  4 12  1  0
  5 16  1  0
  6  7  2  0
  6 17  1  0
  7 11  1  0
  8 18  1  0
  8 19  1  0
  9 10  2  0
 10 11  1  0
 12 13  1  0
 12 14  2  0
 13 20  1  0
 13 21  1  0
 22 23  1  0
 22 26  2  0
 23 24  2  0
 23 28  1  0
 24 25  1  0
 25 26  1  0
 25 29  1  0
 26 27  1  0
 29 30  1  0
 29 31  1  0
 29 32  1  0
M  END
>  <r_exp_dg>  (2) 
-9.08461

>  <experimental dG reference units>  (2) 
kcal/mol

>  <experimental dG reference field>  (2) 
r_exp_dg

>  <kJ/mol experimental dG>  (2) 
-38.01000824

>  <kcal/mol experimental dG>  (2) 
-9.08461

>  <AmberAM1BCCCache>  (2) 
gASVuwIAAAAAAABdlCiMFm51bXB5Ll9jb3JlLm11bHRpYXJyYXmUjAZzY2FsYXKUk5SMBW51bXB5lIwFZHR5cGWUk5SMAmY4lImIh5RSlChLA4wBPJROTk5K/////0r/////SwB0lGJDCLHyS1iqm6+/lIaUUpRoA2gJQwgmeTl0Sm72v5SGlFKUaANoCUMIXqaz/7iNA0CUhpRSlGgDaAlDCOy/YtV4Tfg/lIaUUpRoA2gJQwg8ZikWaS/3v5SGlFKUaANoCUMInIJBI7sN9r+UhpRSlGgDaAlDCJmiD/LxVQDAlIaUUpRoA2gJQwii7b6oFLYjwJSGlFKUaANoCUMIxH+PUubZB8CUhpRSlGgDaAlDCNDQeqxB1A7AlIaUUpRoA2gJQwhAy2r4iT0RQJSGlFKUaANoCUMI0LegDtg5HECUhpRSlGgDaAlDCKvxnr5PXB7AlIaUUpRoA2gJQwjyvRjbDmcfwJSGlFKUaANoCUMInsc9sKUJ+j+UhpRSlGgDaAlDCOPCuVjtOfo/lIaUUpRoA2gJQwgs8uHDIFf4P5SGlFKUaANoCUMIVTNVsOZBFUCUhpRSlGgDaAlDCFUzVbDmQRVAlIaUUpRoA2gJQwg9OrUTBP4NQJSGlFKUaANoCUMIPTq1EwT+DUCUhpRSlGgDaAlDCAUqaToVJQXAlIaUUpRoA2gJQwh+QZgdzZsQQJSGlFKUaANoCUMIDrq9hxRpGMCUhpRSlGgDaAlDCEgdifyufvA/lIaUUpRoA2gJQwiEEEyX2o/4v5SGlFKUaANoCUMIsY7WsNxpAECUhpRSlGgDaAlDCDqQXUVncuc/lIaUUpRoA2gJQwgatxTxu6zeP5SGlFKUaANoCUMIqjXHz7Hp5T+UhpRSlGgDaAlDCKo1x8+x6eU/lIaUUpRoA2gJQwiqNcfPsenlP5SGlFKUZS4=

$$$$
8
     RDKit          3D

 34 36  0  0  1  0  0  0  0  0999 V2000
  -22.5830    9.3550   -6.7420 C   0  0  0  0  0  0  0  0  0  0  0  0
  -23.2120    7.9630   -4.9900 C   0  0  0  0  0  0  0  0  0  0  0  0
  -22.2320    8.5140   -4.1430 C   0  0  0  0  0  0  0  0  0  0  0  0
  -22.1080    8.0350   -2.7350 C   0  0  0  0  0  0  0  0  0  0  0  0
  -22.9880    8.0250   -0.4820 C   0  0  0  0  0  0  0  0  0  0  0  0
  -19.8600    6.0020   -0.5610 C   0  0  0  0  0  0  0  0  0  0  0  0
  -18.9190    5.6570   -1.5550 C   0  0  0  0  0  0  0  0  0  0  0  0
  -20.3380   10.2270   -3.8050 C   0  0  0  0  0  0  0  0  0  0  0  0
  -21.4080    9.5540   -4.6480 C   0  0  0  0  0  0  0  0  0  0  0  0
  -21.6020    9.9700   -5.9680 C   0  0  0  0  0  0  0  0  0  0  0  0
  -23.3410    8.3880   -6.2370 N   0  0  0  0  0  0  0  0  0  0  0  0
  -23.0690    8.4210   -1.8010 C   0  0  0  0  0  0  0  0  0  0  0  0
  -21.9540    7.2300   -0.0600 C   0  0  0  0  0  0  0  0  0  0  0  0
  -20.9580    6.8180   -0.9600 C   0  0  0  0  0  0  0  0  0  0  0  0
  -19.7460    5.6110    0.7560 N   0  0  0  0  0  0  0  0  0  0  0  0
  -19.0890    6.0950   -2.8100 N   0  0  0  0  0  0  0  0  0  0  0  0
  -20.0760    6.8260   -3.1700 N   0  0  0  0  0  0  0  0  0  0  0  0
  -21.0340    7.2180   -2.3180 C   0  0  0  0  0  0  0  0  0  0  0  0
  -17.7130    4.8590   -1.2960 C   0  0  0  0  0  0  0  0  0  0  0  0
  -16.7710    4.7780   -2.2590 N   0  0  0  0  0  0  0  0  0  0  0  0
  -17.5250    4.3260   -0.2190 O   0  0  0  0  0  0  0  0  0  0  0  0
  -22.7348    9.6630   -7.7660 H   0  0  0  0  0  0  0  0  0  0  0  0
  -23.8671    7.1863   -4.6241 H   0  0  0  0  0  0  0  0  0  0  0  0
  -23.7416    8.3413    0.2240 H   0  0  0  0  0  0  0  0  0  0  0  0
  -19.8347   10.9908   -4.3978 H   0  0  0  0  0  0  0  0  0  0  0  0
  -20.7997   10.6903   -2.9330 H   0  0  0  0  0  0  0  0  0  0  0  0
  -19.6109    9.4835   -3.4785 H   0  0  0  0  0  0  0  0  0  0  0  0
  -20.9991   10.7610   -6.3890 H   0  0  0  0  0  0  0  0  0  0  0  0
  -23.8982    9.0427   -2.1048 H   0  0  0  0  0  0  0  0  0  0  0  0
  -21.9009    6.9156    0.9719 H   0  0  0  0  0  0  0  0  0  0  0  0
  -20.4489    5.8861    1.4271 H   0  0  0  0  0  0  0  0  0  0  0  0
  -18.9596    5.0495    1.0498 H   0  0  0  0  0  0  0  0  0  0  0  0
  -15.9340    4.2349   -2.1023 H   0  0  0  0  0  0  0  0  0  0  0  0
  -16.9030    5.2605   -3.1364 H   0  0  0  0  0  0  0  0  0  0  0  0
  1 10  2  0
  1 11  1  0
  1 22  1  0
  2  3  1  0
  2 11  2  0
  2 23  1  0
  3  4  1  0
  3  9  2  0
  4 12  1  0
  4 18  2  0
  5 12  2  0
  5 13  1  0
  5 24  1  0
  6  7  2  0
  6 14  1  0
  6 15  1  0
  7 16  1  0
  7 19  1  0
  8  9  1  0
  8 25  1  0
  8 26  1  0
  8 27  1  0
  9 10  1  0
 10 28  1  0
 12 29  1  0
 13 14  2  0
 13 30  1  0
 14 18  1  0
 15 31  1  0
 15 32  1  0
 16 17  2  0
 17 18  1  0
 19 20  1  0
 19 21  2  0
 20 33  1  0
 20 34  1  0
M  END
>  <r_exp_dg>  (3) 
-9.60639

>  <experimental dG reference units>  (3) 
kcal/mol

>  <experimental dG reference field>  (3) 
r_exp_dg

>  <kJ/mol experimental dG>  (3) 
-40.19313576

>  <kcal/mol experimental dG>  (3) 
-9.60639

>  <AmberAM1BCCCache>  (3) 
gASV4QIAAAAAAABdlCiMFm51bXB5Ll9jb3JlLm11bHRpYXJyYXmUjAZzY2FsYXKUk5SMBW51bXB5lIwFZHR5cGWUk5SMAmY4lImIh5RSlChLA4wBPJROTk5K/////0r/////SwB0lGJDCEQjCnpB9xJAlIaUUpRoA2gJQwj8AI3/SFUUQJSGlFKUaANoCUMI3xPHIyYI/r+UhpRSlGgDaAlDCP7PqfffuOa/lIaUUpRoA2gJQwgU2wTX/CD4v5SGlFKUaANoCUMICNk1wQ3WA0CUhpRSlGgDaAlDCLUubweTffg/lIaUUpRoA2gJQwjlrg2T1Qrov5SGlFKUaANoCUMIlZoNeDUDyr+UhpRSlGgDaAlDCFWp5NRe+QfAlIaUUpRoA2gJQwg9t0H5GoofwJSGlFKUaANoCUMIBFZturU587+UhpRSlGgDaAlDCI9MZQtFmvO/lIaUUpRoA2gJQwimWrum3+YAwJSGlFKUaANoCUMIyV99YhGwI8CUhpRSlGgDaAlDCNNRkehJYQfAlIaUUpRoA2gJQwglnvjq7IsOwJSGlFKUaANoCUMIZ+NKQ8ZtEUCUhpRSlGgDaAlDCLLUBLHMORxAlIaUUpRoA2gJQwj51RsySVAewJSGlFKUaANoCUMIEaG0OBpnH8CUhpRSlGgDaAlDCATsH4Nh7M8/lIaUUpRoA2gJQwiccR8vBz7VP5SGlFKUaANoCUMI8ixCM0+a+j+UhpRSlGgDaAlDCHJVGP36peM/lIaUUpRoA2gJQwhyVRj9+qXjP5SGlFKUaANoCUMIclUY/fql4z+UhpRSlGgDaAlDCH0jOoTe+vo/lIaUUpRoA2gJQwiUECom/bv7P5SGlFKUaANoCUMIPFxqnoK3+D+UhpRSlGgDaAlDCHDO5zH2UxVAlIaUUpRoA2gJQwhwzucx9lMVQJSGlFKUaANoCUMIo3G7LBEWDkCUhpRSlGgDaAlDCKNxuywRFg5AlIaUUpRlLg==

$$$$
9 flip
     RDKit          3D

 36 39  0  0  1  0  0  0  0  0999 V2000
  -23.1417    7.8388   -5.0836 C   0  0  0  0  0  0  0  0  0  0  0  0
  -23.2198    8.2328   -6.3943 C   0  0  0  0  0  0  0  0  0  0  0  0
  -22.3622    9.2601   -6.8469 C   0  0  0  0  0  0  0  0  0  0  0  0
  -22.1841    9.9045   -8.1029 C   0  0  0  0  0  0  0  0  0  0  0  0
  -21.2436   10.8037   -7.9767 C   0  0  0  0  0  0  0  0  0  0  0  0
  -20.7479   10.8143   -6.6727 N   0  0  0  0  0  0  0  0  0  0  0  0
  -21.4383    9.8605   -5.9547 C   0  0  0  0  0  0  0  0  0  0  0  0
  -21.3655    9.4467   -4.6283 C   0  0  0  0  0  0  0  0  0  0  0  0
  -22.2151    8.4414   -4.1872 C   0  0  0  0  0  0  0  0  0  0  0  0
  -22.1196    8.0239   -2.7586 C   0  0  0  0  0  0  0  0  0  0  0  0
  -23.0628    8.4271   -1.8162 C   0  0  0  0  0  0  0  0  0  0  0  0
  -22.9579    8.0393   -0.4855 C   0  0  0  0  0  0  0  0  0  0  0  0
  -21.9353    7.2347   -0.0379 C   0  0  0  0  0  0  0  0  0  0  0  0
  -20.9541    6.8194   -0.9595 C   0  0  0  0  0  0  0  0  0  0  0  0
  -19.8542    6.0001   -0.5500 C   0  0  0  0  0  0  0  0  0  0  0  0
  -19.7100    5.5988    0.7654 N   0  0  0  0  0  0  0  0  0  0  0  0
  -18.9304    5.6618   -1.5548 C   0  0  0  0  0  0  0  0  0  0  0  0
  -19.1032    6.0899   -2.8153 N   0  0  0  0  0  0  0  0  0  0  0  0
  -20.1042    6.8109   -3.1895 N   0  0  0  0  0  0  0  0  0  0  0  0
  -21.0418    7.2070   -2.3197 C   0  0  0  0  0  0  0  0  0  0  0  0
  -17.7186    4.8655   -1.2867 C   0  0  0  0  0  0  0  0  0  0  0  0
  -16.7457    4.8668   -2.2282 N   0  0  0  0  0  0  0  0  0  0  0  0
  -17.5723    4.2557   -0.2334 O   0  0  0  0  0  0  0  0  0  0  0  0
  -23.9273    7.7597   -7.0592 H   0  0  0  0  0  0  0  0  0  0  0  0
  -22.7867    9.6122   -8.9501 H   0  0  0  0  0  0  0  0  0  0  0  0
  -20.0098   11.4551   -6.4183 H   0  0  0  0  0  0  0  0  0  0  0  0
  -20.6549    9.9065   -3.9574 H   0  0  0  0  0  0  0  0  0  0  0  0
  -23.8922    9.0509   -2.1151 H   0  0  0  0  0  0  0  0  0  0  0  0
  -23.6930    8.3706    0.2330 H   0  0  0  0  0  0  0  0  0  0  0  0
  -21.8980    6.9357    0.9992 H   0  0  0  0  0  0  0  0  0  0  0  0
  -18.9266    5.0206    1.0339 H   0  0  0  0  0  0  0  0  0  0  0  0
  -20.3880    5.8838    1.4576 H   0  0  0  0  0  0  0  0  0  0  0  0
  -15.9004    4.3338   -2.0817 H   0  0  0  0  0  0  0  0  0  0  0  0
  -16.8651    5.4008   -3.0771 H   0  0  0  0  0  0  0  0  0  0  0  0
  -23.7904    7.0580   -4.7149 H   0  0  0  0  0  0  0  0  0  0  0  0
  -20.9578   11.4087   -8.8244 H   0  0  0  0  0  0  0  0  0  0  0  0
  1  2  2  0
  1  9  1  0
  1 35  1  0
  2  3  1  0
  2 24  1  0
  3  4  1  0
  3  7  2  0
  4  5  2  0
  4 25  1  0
  5  6  1  0
  5 36  1  0
  6  7  1  0
  6 26  1  0
  7  8  1  0
  8  9  2  0
  8 27  1  0
  9 10  1  0
 10 11  2  0
 10 20  1  0
 11 12  1  0
 11 28  1  0
 12 13  2  0
 12 29  1  0
 13 14  1  0
 13 30  1  0
 14 15  1  0
 14 20  2  0
 15 16  1  0
 15 17  2  0
 16 31  1  0
 16 32  1  0
 17 18  1  0
 17 21  1  0
 18 19  2  0
 19 20  1  0
 21 22  1  0
 21 23  2  0
 22 33  1  0
 22 34  1  0
M  END
>  <r_exp_dg>  (4) 
-8.33091

>  <experimental dG reference units>  (4) 
kcal/mol

>  <experimental dG reference field>  (4) 
r_exp_dg

>  <kJ/mol experimental dG>  (4) 
-34.85652744

>  <kcal/mol experimental dG>  (4) 
-8.33091

>  <AmberAM1BCCCache>  (4) 
gASVBwMAAAAAAABdlCiMFm51bXB5Ll9jb3JlLm11bHRpYXJyYXmUjAZzY2FsYXKUk5SMBW51bXB5lIwFZHR5cGWUk5SMAmY4lImIh5RSlChLA4wBPJROTk5K/////0r/////SwB0lGJDCH7bLVh44PW/lIaUUpRoA2gJQwieZCJCWmjwv5SGlFKUaANoCUMIpHdWBUb877+UhpRSlGgDaAlDCEjaA6lH1wHAlIaUUpRoA2gJQwiiqBkSONLzv5SGlFKUaANoCUMIfmAzQjqdAsCUhpRSlGgDaAlDCL14XE9ssOO/lIaUUpRoA2gJQwjWj+3f8uT4v5SGlFKUaANoCUMIOhRechyd07+UhpRSlGgDaAlDCLV7s9LgnOW/lIaUUpRoA2gJQwhSAU4UO170v5SGlFKUaANoCUMI77CJRP2S97+UhpRSlGgDaAlDCJf8ybyCjvS/lIaUUpRoA2gJQwjawPmFJ9AAwJSGlFKUaANoCUMI7Xk9ZVqkA0CUhpRSlGgDaAlDCCf4a0R1tiPAlIaUUpRoA2gJQwjEa/r3c0r4P5SGlFKUaANoCUMI16lDwWjbB8CUhpRSlGgDaAlDCM0NP3mlFA7AlIaUUpRoA2gJQwh8sYxpEG0RQJSGlFKUaANoCUMIx6JG1xY5HECUhpRSlGgDaAlDCLUG+fUQXR7AlIaUUpRoA2gJQwj80nIS0GcfwJSGlFKUaANoCUMIMnhZKlnW+T+UhpRSlGgDaAlDCJ8ZCVTym/0/lIaUUpRoA2gJQwgg3AtJU/oLQJSGlFKUaANoCUMI1o/t3/Lk+D+UhpRSlGgDaAlDCKJNtRbeiPs/lIaUUpRoA2gJQwi9blF76Db6P5SGlFKUaANoCUMIBZ555htU+D+UhpRSlGgDaAlDCLSdCm4uRxVAlIaUUpRoA2gJQwi0nQpuLkcVQJSGlFKUaANoCUMIKhABpYH8DUCUhpRSlGgDaAlDCCoQAaWB/A1AlIaUUpRoA2gJQwhGZUnMd5f6P5SGlFKUaANoCUMIhvhs7+ft/j+UhpRSlGUu

$$$$
10
     RDKit          3D

 35 38  0  0  1  0  0  0  0  0999 V2000
  -21.3675    9.4459   -4.7327 C   0  0  0  0  0  0  0  0  0  0  0  0
  -21.4652    9.8194   -6.0481 C   0  0  0  0  0  0  0  0  0  0  0  0
  -22.4259    9.1829   -6.8652 C   0  0  0  0  0  0  0  0  0  0  0  0
  -22.7854    9.3119   -8.2358 C   0  0  0  0  0  0  0  0  0  0  0  0
  -23.7535    8.4712   -8.4903 N   0  0  0  0  0  0  0  0  0  0  0  0
  -24.0932    7.7535   -7.3433 N   0  0  0  0  0  0  0  0  0  0  0  0
  -23.2714    8.1826   -6.3223 C   0  0  0  0  0  0  0  0  0  0  0  0
  -23.1654    7.8174   -4.9840 C   0  0  0  0  0  0  0  0  0  0  0  0
  -22.2151    8.4414   -4.1872 C   0  0  0  0  0  0  0  0  0  0  0  0
  -22.1196    8.0239   -2.7586 C   0  0  0  0  0  0  0  0  0  0  0  0
  -23.0628    8.4271   -1.8162 C   0  0  0  0  0  0  0  0  0  0  0  0
  -22.9579    8.0393   -0.4855 C   0  0  0  0  0  0  0  0  0  0  0  0
  -21.9353    7.2347   -0.0379 C   0  0  0  0  0  0  0  0  0  0  0  0
  -20.9541    6.8194   -0.9595 C   0  0  0  0  0  0  0  0  0  0  0  0
  -19.8542    6.0001   -0.5500 C   0  0  0  0  0  0  0  0  0  0  0  0
  -19.7100    5.5988    0.7654 N   0  0  0  0  0  0  0  0  0  0  0  0
  -18.9304    5.6618   -1.5548 C   0  0  0  0  0  0  0  0  0  0  0  0
  -19.1032    6.0899   -2.8153 N   0  0  0  0  0  0  0  0  0  0  0  0
  -20.1042    6.8109   -3.1895 N   0  0  0  0  0  0  0  0  0  0  0  0
  -21.0418    7.2070   -2.3197 C   0  0  0  0  0  0  0  0  0  0  0  0
  -17.7186    4.8655   -1.2867 C   0  0  0  0  0  0  0  0  0  0  0  0
  -16.7457    4.8668   -2.2282 N   0  0  0  0  0  0  0  0  0  0  0  0
  -17.5723    4.2557   -0.2334 O   0  0  0  0  0  0  0  0  0  0  0  0
  -20.8149   10.5868   -6.4413 H   0  0  0  0  0  0  0  0  0  0  0  0
  -22.2705   10.0233   -8.8645 H   0  0  0  0  0  0  0  0  0  0  0  0
  -24.8311    7.0648   -7.3786 H   0  0  0  0  0  0  0  0  0  0  0  0
  -23.8172    7.0579   -4.5782 H   0  0  0  0  0  0  0  0  0  0  0  0
  -23.8922    9.0509   -2.1151 H   0  0  0  0  0  0  0  0  0  0  0  0
  -23.6930    8.3706    0.2330 H   0  0  0  0  0  0  0  0  0  0  0  0
  -21.8980    6.9357    0.9992 H   0  0  0  0  0  0  0  0  0  0  0  0
  -18.9266    5.0206    1.0339 H   0  0  0  0  0  0  0  0  0  0  0  0
  -20.3880    5.8838    1.4576 H   0  0  0  0  0  0  0  0  0  0  0  0
  -15.9004    4.3338   -2.0817 H   0  0  0  0  0  0  0  0  0  0  0  0
  -16.8651    5.4008   -3.0771 H   0  0  0  0  0  0  0  0  0  0  0  0
  -20.6375    9.9162   -4.0906 H   0  0  0  0  0  0  0  0  0  0  0  0
  1  2  2  0
  1  9  1  0
  1 35  1  0
  2  3  1  0
  2 24  1  0
  3  4  1  0
  3  7  2  0
  4  5  2  0
  4 25  1  0
  5  6  1  0
  6  7  1  0
  6 26  1  0
  7  8  1  0
  8  9  2  0
  8 27  1  0
  9 10  1  0
 10 11  2  0
 10 20  1  0
 11 12  1  0
 11 28  1  0
 12 13  2  0
 12 29  1  0
 13 14  1  0
 13 30  1  0
 14 15  1  0
 14 20  2  0
 15 16  1  0
 15 17  2  0
 16 31  1  0
 16 32  1  0
 17 18  1  0
 17 21  1  0
 18 19  2  0
 19 20  1  0
 21 22  1  0
 21 23  2  0
 22 33  1  0
 22 34  1  0
M  END
>  <r_exp_dg>  (5) 
-10.8701

>  <experimental dG reference units>  (5) 
kcal/mol

>  <experimental dG reference field>  (5) 
r_exp_dg

>  <kJ/mol experimental dG>  (5) 
-45.4804984

>  <kcal/mol experimental dG>  (5) 
-10.8701

>  <AmberAM1BCCCache>  (5) 
gASV9AIAAAAAAABdlCiMFm51bXB5Ll9jb3JlLm11bHRpYXJyYXmUjAZzY2FsYXKUk5SMBW51bXB5lIwFZHR5cGWUk5SMAmY4lImIh5RSlChLA4wBPJROTk5K/////0r/////SwB0lGJDCAOrl95eD/a/lIaUUpRoA2gJQwjgLsHsv0Lpv5SGlFKUaANoCUMI4zj7aJZRA8CUhpRSlGgDaAlDCBUdoiGiohBAlIaUUpRoA2gJQwiM+qWx5kgYwJSGlFKUaANoCUMIwg1p52o/yL+UhpRSlGgDaAlDCMCv19ZhNOi/lIaUUpRoA2gJQwi6e29zK/L3v5SGlFKUaANoCUMIZTIblUcJtb+UhpRSlGgDaAlDCC68NglHwOm/lIaUUpRoA2gJQwjw8VP/Kzvzv5SGlFKUaANoCUMIuntvcyvy97+UhpRSlGgDaAlDCHvoS1C7m/O/lIaUUpRoA2gJQwg/pmydvv8AwJSGlFKUaANoCUMIEovCnlLVA0CUhpRSlGgDaAlDCEYzGitAsCPAlIaUUpRoA2gJQwiElwwa1Uv4P5SGlFKUaANoCUMID5uAs0ySB8CUhpRSlGgDaAlDCL3pqeHLpA7AlIaUUpRoA2gJQwjgOG5wnpERQJSGlFKUaANoCUMIti3LH285HECUhpRSlGgDaAlDCMZ7dK24XB7AlIaUUpRoA2gJQwg7Sc/fZVsfwJSGlFKUaANoCUMITIzXliDJ+j+UhpRSlGgDaAlDCNvqa8w8ruQ/lIaUUpRoA2gJQwjl0Hh1+UwNQJSGlFKUaANoCUMIw5XfRZFo+j+UhpRSlGgDaAlDCO1vv4nO6vs/lIaUUpRoA2gJQwhMjNeWIMn6P5SGlFKUaANoCUMIC8UHscSF+D+UhpRSlGgDaAlDCHUnrqCYUxVAlIaUUpRoA2gJQwh1J66gmFMVQJSGlFKUaANoCUMI3CQpIEQJDkCUhpRSlGgDaAlDCNwkKSBECQ5AlIaUUpRoA2gJQwhiecc4P4r7P5SGlFKUZS4=

$$$$
11
     RDKit          3D

 38 41  0  0  1  0  0  0  0  0999 V2000
  -20.3249   10.1456   -3.8790 C   0  0  0  0  0  0  0  0  0  0  0  0
  -21.3675    9.4459   -4.7327 C   0  0  0  0  0  0  0  0  0  0  0  0
  -21.4652    9.8194   -6.0481 C   0  0  0  0  0  0  0  0  0  0  0  0
  -22.4259    9.1829   -6.8652 C   0  0  0  0  0  0  0  0  0  0  0  0
  -22.7854    9.3119   -8.2358 C   0  0  0  0  0  0  0  0  0  0  0  0
  -23.7535    8.4712   -8.4903 N   0  0  0  0  0  0  0  0  0  0  0  0
  -24.0932    7.7535   -7.3433 N   0  0  0  0  0  0  0  0  0  0  0  0
  -23.2714    8.1826   -6.3223 C   0  0  0  0  0  0  0  0  0  0  0  0
  -23.1654    7.8174   -4.9840 C   0  0  0  0  0  0  0  0  0  0  0  0
  -22.2151    8.4414   -4.1872 C   0  0  0  0  0  0  0  0  0  0  0  0
  -22.1196    8.0239   -2.7586 C   0  0  0  0  0  0  0  0  0  0  0  0
  -23.0628    8.4271   -1.8162 C   0  0  0  0  0  0  0  0  0  0  0  0
  -22.9579    8.0393   -0.4855 C   0  0  0  0  0  0  0  0  0  0  0  0
  -21.9353    7.2347   -0.0379 C   0  0  0  0  0  0  0  0  0  0  0  0
  -20.9541    6.8194   -0.9595 C   0  0  0  0  0  0  0  0  0  0  0  0
  -19.8542    6.0001   -0.5500 C   0  0  0  0  0  0  0  0  0  0  0  0
  -19.7100    5.5988    0.7654 N   0  0  0  0  0  0  0  0  0  0  0  0
  -18.9304    5.6618   -1.5548 C   0  0  0  0  0  0  0  0  0  0  0  0
  -19.1032    6.0899   -2.8153 N   0  0  0  0  0  0  0  0  0  0  0  0
  -20.1042    6.8109   -3.1895 N   0  0  0  0  0  0  0  0  0  0  0  0
  -21.0418    7.2070   -2.3197 C   0  0  0  0  0  0  0  0  0  0  0  0
  -17.7186    4.8655   -1.2867 C   0  0  0  0  0  0  0  0  0  0  0  0
  -16.7457    4.8668   -2.2282 N   0  0  0  0  0  0  0  0  0  0  0  0
  -17.5723    4.2557   -0.2334 O   0  0  0  0  0  0  0  0  0  0  0  0
  -20.3608    9.7502   -2.8639 H   0  0  0  0  0  0  0  0  0  0  0  0
  -19.3345    9.9737   -4.3005 H   0  0  0  0  0  0  0  0  0  0  0  0
  -20.5299   11.2160   -3.8589 H   0  0  0  0  0  0  0  0  0  0  0  0
  -20.8149   10.5868   -6.4413 H   0  0  0  0  0  0  0  0  0  0  0  0
  -22.2705   10.0233   -8.8645 H   0  0  0  0  0  0  0  0  0  0  0  0
  -24.8311    7.0648   -7.3786 H   0  0  0  0  0  0  0  0  0  0  0  0
  -23.8172    7.0579   -4.5782 H   0  0  0  0  0  0  0  0  0  0  0  0
  -23.8922    9.0509   -2.1151 H   0  0  0  0  0  0  0  0  0  0  0  0
  -23.6930    8.3706    0.2330 H   0  0  0  0  0  0  0  0  0  0  0  0
  -21.8980    6.9357    0.9992 H   0  0  0  0  0  0  0  0  0  0  0  0
  -18.9266    5.0206    1.0339 H   0  0  0  0  0  0  0  0  0  0  0  0
  -20.3880    5.8838    1.4576 H   0  0  0  0  0  0  0  0  0  0  0  0
  -15.9004    4.3338   -2.0817 H   0  0  0  0  0  0  0  0  0  0  0  0
  -16.8651    5.4008   -3.0771 H   0  0  0  0  0  0  0  0  0  0  0  0
  1  2  1  0
  1 25  1  0
  1 26  1  0
  1 27  1  0
  2  3  2  0
  2 10  1  0
  3  4  1  0
  3 28  1  0
  4  5  1  0
  4  8  2  0
  5  6  2  0
  5 29  1  0
  6  7  1  0
  7  8  1  0
  7 30  1  0
  8  9  1  0
  9 10  2  0
  9 31  1  0
 10 11  1  0
 11 12  2  0
 11 21  1  0
 12 13  1  0
 12 32  1  0
 13 14  2  0
 13 33  1  0
 14 15  1  0
 14 34  1  0
 15 16  1  0
 15 21  2  0
 16 17  1  0
 16 18  2  0
 17 35  1  0
 17 36  1  0
 18 19  1  0
 18 22  1  0
 19 20  2  0
 20 21  1  0
 22 23  1  0
 22 24  2  0
 23 37  1  0
 23 38  1  0
M  END
>  <r_exp_dg>  (6) 
-11.5248

>  <experimental dG reference units>  (6) 
kcal/mol

>  <experimental dG reference field>  (6) 
r_exp_dg

>  <kJ/mol experimental dG>  (6) 
-48.2197632

>  <kcal/mol experimental dG>  (6) 
-11.5248

>  <AmberAM1BCCCache>  (6) 
gASVLQMAAAAAAABdlCiMFm51bXB5Ll9jb3JlLm11bHRpYXJyYXmUjAZzY2FsYXKUk5SMBW51bXB5lIwFZHR5cGWUk5SMAmY4lImIh5RSlChLA4wBPJROTk5K/////0r/////SwB0lGJDCA6AtmxBh+O/lIaUUpRoA2gJQwizTDE0c8nvv5SGlFKUaANoCUMIzEMsqhUE6r+UhpRSlGgDaAlDCJMHXodcIQPAlIaUUpRoA2gJQwh3uvRpd4oQQJSGlFKUaANoCUMIhl8Vle1IGMCUhpRSlGgDaAlDCJQetomPucO/lIaUUpRoA2gJQwghzkpDKJXov5SGlFKUaANoCUMIC5Sdk3Cq8r+UhpRSlGgDaAlDCL7Zc4D1E7u/lIaUUpRoA2gJQwjt9sGCX//ov5SGlFKUaANoCUMIUI8ZPLja8r+UhpRSlGgDaAlDCKQPLQFH8ve/lIaUUpRoA2gJQwird4WGHszzv5SGlFKUaANoCUMINHBLZMz/AMCUhpRSlGgDaAlDCBzB49dE1QNAlIaUUpRoA2gJQwjD5dGcQ7AjwJSGlFKUaANoCUMIVAjT43Eb+D+UhpRSlGgDaAlDCKhinU5+qgfAlIaUUpRoA2gJQwhuuAwAknQOwJSGlFKUaANoCUMIcdehzmFtEUCUhpRSlGgDaAlDCL3IWzxoORxAlIaUUpRoA2gJQwi/4OOQv1wewJSGlFKUaANoCUMIBq1drX5nH8CUhpRSlGgDaAlDCPc3CCHs/uA/lIaUUpRoA2gJQwj3Nwgh7P7gP5SGlFKUaANoCUMI9zcIIez+4D+UhpRSlGgDaAlDCNgBIrh1aPo/lIaUUpRoA2gJQwgGw/CwBa7kP5SGlFKUaANoCUMIkgTYgg9lDUCUhpRSlGgDaAlDCHjlCasjivs/lIaUUpRoA2gJQwhI132k+hr8P5SGlFKUaANoCUMIHP2dYL2Y+j+UhpRSlGgDaAlDCCAxSiOphfg/lIaUUpRoA2gJQwh6wj69kVMVQJSGlFKUaANoCUMIesI+vZFTFUCUhpRSlGgDaAlDCOVaSlk2CQ5AlIaUUpRoA2gJQwjlWkpZNgkOQJSGlFKUZS4=

$$$$
