21
     RDKit          3D

 72 78  0  0  1  0  0  0  0  0999 V2000
   26.3250   -2.5289   53.9312 C   0  0  0  0  0  0  0  0  0  0  0  0
   25.1880   -1.7631   53.6847 C   0  0  0  0  0  0  0  0  0  0  0  0
   31.3565    0.9605   55.9703 C   0  0  0  0  0  0  0  0  0  0  0  0
   31.2675    2.2117   58.0273 C   0  0  0  0  0  0  0  0  0  0  0  0
   17.4136   -1.1719   52.3828 C   0  0  0  0  0  0  0  0  0  0  0  0
   27.3251   -2.0411   54.7687 C   0  0  0  0  0  0  0  0  0  0  0  0
   22.8368   -1.9839   55.9934 C   0  0  0  0  0  0  0  0  0  0  0  0
   22.2341   -3.0719   56.6245 C   0  0  0  0  0  0  0  0  0  0  0  0
   30.8405    1.1222   57.2650 C   0  0  0  0  0  0  0  0  0  0  0  0
   27.1824   -0.7831   55.3770 C   0  0  0  0  0  0  0  0  0  0  0  0
   22.0803   -1.3110   55.0248 C   0  0  0  0  0  0  0  0  0  0  0  0
   23.8462    0.2869   54.0200 C   0  0  0  0  0  0  0  0  0  0  0  0
   20.3324   -2.7881   55.3696 C   0  0  0  0  0  0  0  0  0  0  0  0
   20.4155    1.1296   53.4655 C   0  0  0  0  0  0  0  0  0  0  0  0
   29.1348   -0.7936   56.9377 C   0  0  0  0  0  0  0  0  0  0  0  0
   32.6424    2.9881   56.2032 C   0  0  0  0  0  0  0  0  0  0  0  0
   32.2462    1.8921   55.4412 C   0  0  0  0  0  0  0  0  0  0  0  0
   32.1649    3.1401   57.5018 C   0  0  0  0  0  0  0  0  0  0  0  0
   15.7223   -2.1599   53.7722 C   0  0  0  0  0  0  0  0  0  0  0  0
   18.3931   -1.8362   53.1098 C   0  0  0  0  0  0  0  0  0  0  0  0
   16.7065   -2.8049   54.5081 C   0  0  0  0  0  0  0  0  0  0  0  0
   26.0578   -0.0100   55.0848 C   0  0  0  0  0  0  0  0  0  0  0  0
   25.0485   -0.4908   54.2510 C   0  0  0  0  0  0  0  0  0  0  0  0
   16.0595   -1.2949   52.7251 C   0  0  0  0  0  0  0  0  0  0  0  0
   18.0581   -2.6075   54.2282 C   0  0  0  0  0  0  0  0  0  0  0  0
   22.5441   -0.1340   54.3114 C   0  0  0  0  0  0  0  0  0  0  0  0
   22.6354    1.8192   53.2444 C   0  0  0  0  0  0  0  0  0  0  0  0
   20.2696    2.3464   52.8298 C   0  0  0  0  0  0  0  0  0  0  0  0
   15.3830    0.2436   50.8710 C   0  0  0  0  0  0  0  0  0  0  0  0
   13.7523   -0.3360   52.6878 C   0  0  0  0  0  0  0  0  0  0  0  0
   14.1176    0.5847   50.0611 C   0  0  0  0  0  0  0  0  0  0  0  0
   13.1424    1.0152   52.2654 C   0  0  0  0  0  0  0  0  0  0  0  0
   29.8721    0.1303   57.9146 C   0  0  0  0  0  0  0  0  0  0  0  0
   20.9805   -3.4985   56.3217 N   0  0  0  0  0  0  0  0  0  0  0  0
   20.8250   -1.7044   54.7318 N   0  0  0  0  0  0  0  0  0  0  0  0
   23.9035    1.4817   53.4757 N   0  0  0  0  0  0  0  0  0  0  0  0
   21.7546    0.8477   53.7078 N   0  0  0  0  0  0  0  0  0  0  0  0
   15.0550   -0.5671   52.0458 N   0  0  0  0  0  0  0  0  0  0  0  0
   19.0188   -3.1743   55.0843 N   0  0  0  0  0  0  0  0  0  0  0  0
   28.0938   -0.2309   56.2974 N   0  0  0  0  0  0  0  0  0  0  0  0
   29.5243   -1.9498   56.7972 O   0  0  0  0  0  0  0  0  0  0  0  0
   13.0574    1.1466   50.8442 O   0  0  0  0  0  0  0  0  0  0  0  0
   21.7841    3.1702   52.5146 S   0  0  0  0  0  0  0  0  0  0  0  0
   26.4237   -3.5093   53.4871 H   0  0  0  0  0  0  0  0  0  0  0  0
   24.4121   -2.1634   53.0485 H   0  0  0  0  0  0  0  0  0  0  0  0
   31.0769    0.1096   55.3691 H   0  0  0  0  0  0  0  0  0  0  0  0
   30.8965    2.3323   59.0331 H   0  0  0  0  0  0  0  0  0  0  0  0
   17.7388   -0.5423   51.5687 H   0  0  0  0  0  0  0  0  0  0  0  0
   28.1876   -2.6648   54.9437 H   0  0  0  0  0  0  0  0  0  0  0  0
   23.8280   -1.6674   56.2777 H   0  0  0  0  0  0  0  0  0  0  0  0
   22.7528   -3.6124   57.3954 H   0  0  0  0  0  0  0  0  0  0  0  0
   19.6517    0.4338   53.7575 H   0  0  0  0  0  0  0  0  0  0  0  0
   33.3329    3.7096   55.7940 H   0  0  0  0  0  0  0  0  0  0  0  0
   32.6392    1.7579   54.4448 H   0  0  0  0  0  0  0  0  0  0  0  0
   32.4916    3.9773   58.0978 H   0  0  0  0  0  0  0  0  0  0  0  0
   14.6917   -2.3309   54.0468 H   0  0  0  0  0  0  0  0  0  0  0  0
   19.4116   -1.7155   52.7889 H   0  0  0  0  0  0  0  0  0  0  0  0
   16.3731   -3.4293   55.3128 H   0  0  0  0  0  0  0  0  0  0  0  0
   25.9310    0.9602   55.5378 H   0  0  0  0  0  0  0  0  0  0  0  0
   19.3436    2.8120   52.5271 H   0  0  0  0  0  0  0  0  0  0  0  0
   16.0861   -0.2807   50.2279 H   0  0  0  0  0  0  0  0  0  0  0  0
   15.8701    1.1601   51.1984 H   0  0  0  0  0  0  0  0  0  0  0  0
   13.8403   -0.3362   53.7749 H   0  0  0  0  0  0  0  0  0  0  0  0
   13.0766   -1.1482   52.4186 H   0  0  0  0  0  0  0  0  0  0  0  0
   14.3607    1.2776   49.2567 H   0  0  0  0  0  0  0  0  0  0  0  0
   13.7351   -0.3205   49.5872 H   0  0  0  0  0  0  0  0  0  0  0  0
   12.1479    1.1440   52.6932 H   0  0  0  0  0  0  0  0  0  0  0  0
   13.7519    1.8342   52.6513 H   0  0  0  0  0  0  0  0  0  0  0  0
   30.4330   -0.4704   58.6276 H   0  0  0  0  0  0  0  0  0  0  0  0
   29.1320    0.6802   58.4981 H   0  0  0  0  0  0  0  0  0  0  0  0
   18.6634   -3.8923   55.7023 H   0  0  0  0  0  0  0  0  0  0  0  0
   27.9118    0.7324   56.5484 H   0  0  0  0  0  0  0  0  0  0  0  0
  1  2  2  0
  1  6  1  0
  1 44  1  0
  2 23  1  0
  2 45  1  0
  3  9  2  0
  3 17  1  0
  3 46  1  0
  4  9  1  0
  4 18  2  0
  4 47  1  0
  5 20  2  0
  5 24  1  0
  5 48  1  0
  6 10  2  0
  6 49  1  0
  7  8  2  0
  7 11  1  0
  7 50  1  0
  8 34  1  0
  8 51  1  0
  9 33  1  0
 10 22  1  0
 10 40  1  0
 11 26  1  0
 11 35  2  0
 12 23  1  0
 12 26  2  0
 12 36  1  0
 13 34  2  0
 13 35  1  0
 13 39  1  0
 14 28  2  0
 14 37  1  0
 14 52  1  0
 15 33  1  0
 15 40  1  0
 15 41  2  0
 16 17  2  0
 16 18  1  0
 16 53  1  0
 17 54  1  0
 18 55  1  0
 19 21  1  0
 19 24  2  0
 19 56  1  0
 20 25  1  0
 20 57  1  0
 21 25  2  0
 21 58  1  0
 22 23  2  0
 22 59  1  0
 24 38  1  0
 25 39  1  0
 26 37  1  0
 27 36  2  0
 27 37  1  0
 27 43  1  0
 28 43  1  0
 28 60  1  0
 29 31  1  0
 29 38  1  0
 29 61  1  0
 29 62  1  0
 30 32  1  0
 30 38  1  0
 30 63  1  0
 30 64  1  0
 31 42  1  0
 31 65  1  0
 31 66  1  0
 32 42  1  0
 32 67  1  0
 32 68  1  0
 33 69  1  0
 33 70  1  0
 39 71  1  0
 40 72  1  0
M  END
>  <i_fepmapper_affinity>  (1) 
1

>  <i_fepmapper_unit>  (1) 
1

>  <i_m_Source_File_Index>  (1) 
1

>  <i_mpc_Hbond_Acceptors>  (1) 
5

>  <i_mpc_Hbond_Donors>  (1) 
2

>  <i_mpc_Rotatable_Bonds>  (1) 
9

>  <b_m_subgroup_collapsed>  (1) 
0

>  <r_fepplus_exp_dg>  (1) 
-9.88

>  <r_mpc_ALogP>  (1) 
5.8306

>  <r_mpc_Molecular_Weight>  (1) 
587.709

>  <r_mpc_Polar_Surface_Area>  (1) 
125.44

>  <s_fep_fragname>  (1) 
none

>  <s_leadoptmap_moltype>  (1) 
ligand

>  <s_m_Source_File>  (1) 
egfr_ligands.sdf

>  <s_m_Source_Path>  (1) 
/cfs/riesbenj/FE_Calculations/openfe_industry_benchmark/IndustryBenchmarks2024/industry_benchmarks/input_structures/prepared_structures/charge_annihilation_set/egfr

>  <s_m_entry_id>  (1) 
71

>  <s_m_entry_name>  (1) 
21

>  <s_m_subgroup_title>  (1) 
egfr_ca->egfr_ligands

>  <s_m_subgroupid>  (1) 
egfr_ca->egfr_ligands

>  <s_mpc_SMILES>  (1) 
c1ccccc1CC(=O)Nc(ccc2)cc2-c(n3)c(n(c34)ccs4)-c5ccnc(n5)Nc6ccc(cc6)N7CCOCC7

>  <experimental dG reference units>  (1) 
kcal/mol

>  <experimental dG reference field>  (1) 
r_fepplus_exp_dg

>  <kJ/mol experimental dG>  (1) 
-41.337920000000004

>  <kcal/mol experimental dG>  (1) 
-9.88

>  <AmberAM1BCCCache>  (1) 
gASVswUAAAAAAABdlCiMFm51bXB5Ll9jb3JlLm11bHRpYXJyYXmUjAZzY2FsYXKUk5SMBW51bXB5lIwFZHR5cGWUk5SMAmY4lImIh5RSlChLA4wBPJROTk5K/////0r/////SwB0lGJDCGOhxlyhIfW/lIaUUpRoA2gJQwhAGNJyv5n6v5SGlFKUaANoCUMIi2FQv2it97+UhpRSlGgDaAlDCIthUL9orfe/lIaUUpRoA2gJQwhjxo2uABUAwJSGlFKUaANoCUMIbfKxtvwb/L+UhpRSlGgDaAlDCJTbRkgbjhLAlIaUUpRoA2gJQwg4gZDX9qUVQJSGlFKUaANoCUMIg6W1XMHs8r+UhpRSlGgDaAlDCM8F6arkReg/lIaUUpRoA2gJQwiwhTfpRpMaQJSGlFKUaANoCUMIkRhaYUSyE0CUhpRSlGgDaAlDCKoErSG9XCRAlIaUUpRoA2gJQwir4cQfcKHlv5SGlFKUaANoCUMI4KMO/WF/H0CUhpRSlGgDaAlDCBdynvFtBPe/lIaUUpRoA2gJQwjpYxLrRJX3v5SGlFKUaANoCUMI6WMS60SV97+UhpRSlGgDaAlDCGPGja4AFQDAlIaUUpRoA2gJQwh+3LiiIcbyv5SGlFKUaANoCUMIfty4oiHG8r+UhpRSlGgDaAlDCDzkJbDTrPy/lIaUUpRoA2gJQwjD1zRLafbyv5SGlFKUaANoCUMI4jqy6v5C+z+UhpRSlGgDaAlDCALTZpcpYu4/lIaUUpRoA2gJQwiFsw+DpAAJwJSGlFKUaANoCUMIMzDuFt7AEkCUhpRSlGgDaAlDCPoXfC1v6QDAlIaUUpRoA2gJQwjfzwLisnz9P5SGlFKUaANoCUMI388C4rJ8/T+UhpRSlGgDaAlDCEqIHzfIIfY/lIaUUpRoA2gJQwhKiB83yCH2P5SGlFKUaANoCUMIyDWC/LxW9b+UhpRSlGgDaAlDCIKbQ91XJyHAlIaUUpRoA2gJQwipzn0CQy0iwJSGlFKUaANoCUMIAETpEai0HcCUhpRSlGgDaAlDCM7+frZcffW/lIaUUpRoA2gJQwh2Hu80kC4ewJSGlFKUaANoCUMIpGOFYLRRIMCUhpRSlGgDaAlDCFXtvilR7hXAlIaUUpRoA2gJQwjWVF0jWAMcwJSGlFKUaANoCUMI8KFb9zPVE8CUhpRSlGgDaAlDCFHHtWmF2c6/lIaUUpRoA2gJQwg3xdCDEdT5P5SGlFKUaANoCUMITLLAJTCV+j+UhpRSlGgDaAlDCJbHkq/tu/k/lIaUUpRoA2gJQwiWx5Kv7bv5P5SGlFKUaANoCUMIlseSr+27+T+UhpRSlGgDaAlDCMQIHENafwBAlIaUUpRoA2gJQwjaD2LG7jYAQJSGlFKUaANoCUMIxLLnuzaA1z+UhpRSlGgDaAlDCL+6GZ/4mwNAlIaUUpRoA2gJQwjzyVTbyaP5P5SGlFKUaANoCUMIdS5TuBm3+T+UhpRSlGgDaAlDCHUuU7gZt/k/lIaUUpRoA2gJQwiWx5Kv7bv5P5SGlFKUaANoCUMIIXrcyeHH+j+UhpRSlGgDaAlDCCF63Mnhx/o/lIaUUpRoA2gJQwhin7DHTlb7P5SGlFKUaANoCUMIB+pBCiy5AUCUhpRSlGgDaAlDCO1aMdLa4OQ/lIaUUpRoA2gJQwjtWjHS2uDkP5SGlFKUaANoCUMI7Vox0trg5D+UhpRSlGgDaAlDCO1aMdLa4OQ/lIaUUpRoA2gJQwjyMNl8tYLkP5SGlFKUaANoCUMI8jDZfLWC5D+UhpRSlGgDaAlDCPIw2Xy1guQ/lIaUUpRoA2gJQwjyMNl8tYLkP5SGlFKUaANoCUMIbt/FyQ7u7z+UhpRSlGgDaAlDCG7fxckO7u8/lIaUUpRoA2gJQwgtQPCKjSgUQJSGlFKUaANoCUMIUKdPtUaYDkCUhpRSlGUu

$$$$
27chargR
     RDKit          3D

 72 78  0  0  1  0  0  0  0  0999 V2000
   26.3471   -2.5485   53.8987 C   0  0  0  0  0  0  0  0  0  0  0  0
   25.1820   -1.7944   53.6705 C   0  0  0  0  0  0  0  0  0  0  0  0
   31.2574    2.2098   58.0496 C   0  0  0  0  0  0  0  0  0  0  0  0
   31.3445    0.9431   55.9691 C   0  0  0  0  0  0  0  0  0  0  0  0
   17.4553   -1.2620   52.2667 C   0  0  0  0  0  0  0  0  0  0  0  0
   27.3539   -2.0501   54.7473 C   0  0  0  0  0  0  0  0  0  0  0  0
   22.8236   -1.9961   55.9945 C   0  0  0  0  0  0  0  0  0  0  0  0
   22.2130   -3.1019   56.6174 C   0  0  0  0  0  0  0  0  0  0  0  0
   30.8337    1.1025   57.2806 C   0  0  0  0  0  0  0  0  0  0  0  0
   27.1880   -0.7871   55.3790 C   0  0  0  0  0  0  0  0  0  0  0  0
   22.0551   -1.3119   55.0266 C   0  0  0  0  0  0  0  0  0  0  0  0
   23.8286    0.2455   54.0413 C   0  0  0  0  0  0  0  0  0  0  0  0
   20.3298   -2.7890   55.3665 C   0  0  0  0  0  0  0  0  0  0  0  0
   20.4343    1.1587   53.4767 C   0  0  0  0  0  0  0  0  0  0  0  0
   29.1374   -0.8012   56.9461 C   0  0  0  0  0  0  0  0  0  0  0  0
   32.6272    3.0010   56.1991 C   0  0  0  0  0  0  0  0  0  0  0  0
   32.1589    3.1461   57.5153 C   0  0  0  0  0  0  0  0  0  0  0  0
   32.2294    1.8932   55.4271 C   0  0  0  0  0  0  0  0  0  0  0  0
   15.7119   -2.1122   53.7632 C   0  0  0  0  0  0  0  0  0  0  0  0
   18.4179   -1.8646   53.0813 C   0  0  0  0  0  0  0  0  0  0  0  0
   16.6962   -2.7636   54.5335 C   0  0  0  0  0  0  0  0  0  0  0  0
   26.0545   -0.0111   55.0861 C   0  0  0  0  0  0  0  0  0  0  0  0
   25.0455   -0.5155   54.2543 C   0  0  0  0  0  0  0  0  0  0  0  0
   16.0991   -1.3803   52.6025 C   0  0  0  0  0  0  0  0  0  0  0  0
   18.0629   -2.6106   54.2238 C   0  0  0  0  0  0  0  0  0  0  0  0
   22.5377   -0.1268   54.3076 C   0  0  0  0  0  0  0  0  0  0  0  0
   22.6450    1.8240   53.2633 C   0  0  0  0  0  0  0  0  0  0  0  0
   20.2208    2.3545   52.8369 C   0  0  0  0  0  0  0  0  0  0  0  0
   29.8869    0.0953   57.9385 C   0  0  0  0  0  0  0  0  0  0  0  0
   20.9625   -3.5016   56.2997 N   0  0  0  0  0  0  0  0  0  0  0  0
   20.8100   -1.7128   54.7430 N   0  0  0  0  0  0  0  0  0  0  0  0
   23.8795    1.5253   53.4752 N   0  0  0  0  0  0  0  0  0  0  0  0
   21.7458    0.8685   53.7103 N   0  0  0  0  0  0  0  0  0  0  0  0
   15.0707   -0.7030   51.7057 C   0  0  0  0  0  0  0  0  0  0  0  0
   19.0442   -3.1840   55.0439 N   0  0  0  0  0  0  0  0  0  0  0  0
   28.0897   -0.2280   56.3250 N   0  0  0  0  0  0  0  0  0  0  0  0
   29.5192   -1.9558   56.7761 O   0  0  0  0  0  0  0  0  0  0  0  0
   21.7500    3.1353   52.5230 S   0  0  0  0  0  0  0  0  0  0  0  0
   26.4668   -3.5140   53.4346 H   0  0  0  0  0  0  0  0  0  0  0  0
   24.4032   -2.1876   53.0337 H   0  0  0  0  0  0  0  0  0  0  0  0
   30.8954    2.3336   59.0620 H   0  0  0  0  0  0  0  0  0  0  0  0
   31.0722    0.0888   55.3684 H   0  0  0  0  0  0  0  0  0  0  0  0
   28.2251   -2.6654   54.9106 H   0  0  0  0  0  0  0  0  0  0  0  0
   23.8156   -1.6852   56.2798 H   0  0  0  0  0  0  0  0  0  0  0  0
   22.7221   -3.6625   57.3846 H   0  0  0  0  0  0  0  0  0  0  0  0
   19.6761    0.4654   53.7966 H   0  0  0  0  0  0  0  0  0  0  0  0
   33.3107    3.7301   55.7907 H   0  0  0  0  0  0  0  0  0  0  0  0
   32.4845    3.9799   58.1174 H   0  0  0  0  0  0  0  0  0  0  0  0
   32.6113    1.7699   54.4252 H   0  0  0  0  0  0  0  0  0  0  0  0
   19.4389   -1.7732   52.7582 H   0  0  0  0  0  0  0  0  0  0  0  0
   16.3877   -3.3265   55.3926 H   0  0  0  0  0  0  0  0  0  0  0  0
   25.9194    0.9545   55.5559 H   0  0  0  0  0  0  0  0  0  0  0  0
   19.2953    2.8209   52.5271 H   0  0  0  0  0  0  0  0  0  0  0  0
   30.4706   -0.5318   58.6080 H   0  0  0  0  0  0  0  0  0  0  0  0
   29.1604    0.6263   58.5561 H   0  0  0  0  0  0  0  0  0  0  0  0
   18.6783   -3.8823   55.6807 H   0  0  0  0  0  0  0  0  0  0  0  0
   27.8915    0.7371   56.5977 H   0  0  0  0  0  0  0  0  0  0  0  0
   15.1040    0.3695   51.8992 H   0  0  0  0  0  0  0  0  0  0  0  0
   13.6496   -1.2395   51.9454 C   0  0  0  0  0  0  0  0  0  0  0  0
   14.2455   -2.1050   54.1864 C   0  0  0  0  0  0  0  0  0  0  0  0
   13.8528   -3.1225   54.1912 H   0  0  0  0  0  0  0  0  0  0  0  0
   14.2346   -1.6699   55.1622 H   0  0  0  0  0  0  0  0  0  0  0  0
   13.3586   -1.1899   53.4019 N   0  0  2  0  0  0  0  0  0  0  0  0
   13.5555   -2.2662   51.5875 H   0  0  0  0  0  0  0  0  0  0  0  0
   12.9327   -0.6351   51.3872 H   0  0  0  0  0  0  0  0  0  0  0  0
   17.7575   -0.7102   51.3890 H   0  0  0  0  0  0  0  0  0  0  0  0
   15.3450   -0.8471   50.6601 H   0  0  0  0  0  0  0  0  0  0  0  0
   13.5891   -0.2436   53.6967 H   0  0  0  0  0  0  0  0  0  0  0  0
   11.9162   -1.3644   53.7276 C   0  0  0  0  0  0  0  0  0  0  0  0
   11.5642   -2.3529   53.4262 H   0  0  0  0  0  0  0  0  0  0  0  0
   11.7510   -1.2579   54.7998 H   0  0  0  0  0  0  0  0  0  0  0  0
   11.3077   -0.6157   53.2184 H   0  0  0  0  0  0  0  0  0  0  0  0
  1  2  2  0
  1  6  1  0
  1 39  1  0
  2 23  1  0
  2 40  1  0
  3  9  2  0
  3 17  1  0
  3 41  1  0
  4  9  1  0
  4 18  2  0
  4 42  1  0
  5 20  2  0
  5 24  1  0
  5 66  1  0
  6 10  2  0
  6 43  1  0
  7  8  2  0
  7 11  1  0
  7 44  1  0
  8 30  1  0
  8 45  1  0
  9 29  1  0
 10 22  1  0
 10 36  1  0
 11 26  1  0
 11 31  2  0
 12 23  1  0
 12 26  2  0
 12 32  1  0
 13 30  2  0
 13 31  1  0
 13 35  1  0
 14 28  2  0
 14 33  1  0
 14 46  1  0
 15 29  1  0
 15 36  1  0
 15 37  2  0
 16 17  2  0
 16 18  1  0
 16 47  1  0
 17 48  1  0
 18 49  1  0
 19 21  1  0
 19 24  2  0
 19 60  1  0
 20 25  1  0
 20 50  1  0
 21 25  2  0
 21 51  1  0
 22 23  2  0
 22 52  1  0
 24 34  1  0
 25 35  1  0
 26 33  1  0
 27 32  2  0
 27 33  1  0
 27 38  1  0
 28 38  1  0
 28 53  1  0
 29 54  1  0
 29 55  1  0
 34 58  1  0
 34 59  1  0
 34 67  1  0
 35 56  1  0
 36 57  1  0
 59 63  1  0
 59 64  1  0
 59 65  1  0
 60 61  1  0
 60 62  1  0
 60 63  1  0
 63 68  1  1
 63 69  1  0
 69 70  1  0
 69 71  1  0
 69 72  1  0
M  CHG  1  63   1
M  END
>  <i_epik_Tot_Q>  (2) 
1

>  <i_epik_Tot_abs_Q>  (2) 
1

>  <i_epik_pKa_atom_1>  (2) 
37

>  <i_epik_pKa_atom_2>  (2) 
32

>  <i_epik_pKa_atom_3>  (2) 
30

>  <i_epik_pKa_atom_4>  (2) 
63

>  <i_epik_pKa_atom_5>  (2) 
36

>  <i_epik_pKa_atom_6>  (2) 
35

>  <i_fepmapper_affinity>  (2) 
1

>  <i_fepmapper_unit>  (2) 
1

>  <i_glide_mcs_nalchemical_region>  (2) 
30

>  <i_i_glide_confnum>  (2) 
4

>  <i_i_glide_lignum>  (2) 
1

>  <i_i_glide_posenum>  (2) 
4

>  <i_i_glide_rotatable_bonds>  (2) 
8

>  <i_m_Source_File_Index>  (2) 
3

>  <i_mpc_Hbond_Acceptors>  (2) 
4

>  <i_mpc_Hbond_Donors>  (2) 
2

>  <i_mpc_Rotatable_Bonds>  (2) 
8

>  <b_m_subgroup_collapsed>  (2) 
0

>  <r_epik_Charging_Adjusted_Penalty>  (2) 
0.0451062

>  <r_epik_Ionization_Penalty>  (2) 
0.025

>  <r_epik_Ionization_Penalty_Charging>  (2) 
0.0249

>  <r_epik_Ionization_Penalty_Neutral>  (2) 
0.0001

>  <r_epik_State_Penalty>  (2) 
0.0202

>  <r_epik_pKa_1>  (2) 
1.556

>  <r_epik_pKa_2>  (2) 
2.083

>  <r_epik_pKa_3>  (2) 
3.112

>  <r_epik_pKa_4>  (2) 
8.368

>  <r_epik_pKa_5>  (2) 
13.814

>  <r_epik_pKa_6>  (2) 
15.513

>  <r_fepplus_exp_dg>  (2) 
-9.94

>  <r_glide_mcs_similarity>  (2) 
0.770833

>  <r_glide_shape_similarity>  (2) 
0.873626

>  <r_i_docking_score>  (2) 
-15.8415

>  <r_i_glide_ecoul>  (2) 
-17.3065

>  <r_i_glide_eff_state_penalty>  (2) 
0.0202

>  <r_i_glide_einternal>  (2) 
-7.91924e-07

>  <r_i_glide_emodel>  (2) 
-96.5838

>  <r_i_glide_energy>  (2) 
-85.7349

>  <r_i_glide_erotb>  (2) 
0.416278

>  <r_i_glide_esite>  (2) 
0

>  <r_i_glide_evdw>  (2) 
-68.4284

>  <r_i_glide_gscore>  (2) 
-15.8617

>  <r_i_glide_hbond>  (2) 
-0.969944

>  <r_i_glide_ligand_efficiency>  (2) 
-0.377178

>  <r_i_glide_ligand_efficiency_ln>  (2) 
-3.34373

>  <r_i_glide_ligand_efficiency_sa>  (2) 
-1.31108

>  <r_i_glide_lipo>  (2) 
-7.15229

>  <r_i_glide_metal>  (2) 
0

>  <r_i_glide_rewards>  (2) 
-2.13835

>  <r_i_glide_rmsd>  (2) 
0.0325274

>  <r_lp_tautomer_probability>  (2) 
1

>  <r_mpc_ALogP>  (2) 
4.5683

>  <r_mpc_Molecular_Weight>  (2) 
572.717

>  <r_mpc_Polar_Surface_Area>  (2) 
117.41

>  <s_epik_pKa_identifier_1>  (2) 
amide O atom

>  <s_epik_pKa_identifier_2>  (2) 
Imidazoliniumthiazole

>  <s_epik_pKa_identifier_3>  (2) 
Pyrimidinium ions, 2-amino

>  <s_epik_pKa_identifier_4>  (2) 
Benzylaminium, ring substituted

>  <s_epik_pKa_identifier_5>  (2) 
Amide, Phenyl Anilinium derivative

>  <s_epik_pKa_identifier_6>  (2) 
Imine Adjacent 2X 6 membered Aromatic Lewis I

>  <s_fep_fragname>  (2) 
none

>  <s_glide_best_reflig>  (2) 
21

>  <s_glide_core_atoms_lig>  (2) 
4 18 16 17 3 9 29 15 37 36 10 6 1 2 23 22 12 32 26 33 27 14 28 38 11 7 8 30 13 31 35 25 21 19 24 5 20

>  <s_glide_core_atoms_ref>  (2) 
3 17 16 18 4 9 29 15 37 36 10 6 1 2 23 22 12 32 26 33 27 14 28 38 11 7 8 30 13 31 35 25 20 5 24 19 21

>  <s_glide_core_constrain_type>  (2) 
snapped_core_restrain

>  <s_glide_core_smarts>  (2) 
c1ccccc1CC(=O)Nc2cccc(c2)-c(n3)c(n(c34)ccs4)-c5ccnc(n5)Nc6ccccc6

>  <s_glide_mcs_list>  (2) 
c1ccccc1CC(=O)Nc2cccc(c2)-c(n3)c(n(c34)ccs4)-c5ccnc(n5)Nc6ccccc6

>  <s_glide_mcs_pose_align_method>  (2) 
snapped_core_restrain

>  <s_glide_mcs_ref_pose_origin>  (2) 
ligand_aligner_snapped_core

>  <s_i_glide_gridfile>  (2) 
glide-grid_1

>  <s_leadoptmap_moltype>  (2) 
ligand

>  <s_m_Source_File>  (2) 
egfr_ligands.sdf

>  <s_m_Source_Path>  (2) 
/cfs/riesbenj/FE_Calculations/openfe_industry_benchmark/IndustryBenchmarks2024/industry_benchmarks/input_structures/prepared_structures/charge_annihilation_set/egfr

>  <s_m_entry_id>  (2) 
73

>  <s_m_entry_name>  (2) 
30charg

>  <s_m_job_name>  (2) 
epik_3

>  <s_m_subgroup_title>  (2) 
egfr_ca->egfr_ligands

>  <s_m_subgroupid>  (2) 
egfr_ca->egfr_ligands

>  <s_mpc_SMILES>  (2) 
c1ccccc1CC(=O)Nc(ccc2)cc2-c(n3)c(n(c34)ccs4)-c5ccnc(n5)Nc(c6)ccc(c67)CC[N@@H+](C)C7

>  <experimental dG reference units>  (2) 
kcal/mol

>  <experimental dG reference field>  (2) 
r_fepplus_exp_dg

>  <kJ/mol experimental dG>  (2) 
-41.58896

>  <kcal/mol experimental dG>  (2) 
-9.94

>  <AmberAM1BCCCache>  (2) 
gASVswUAAAAAAABdlCiMFm51bXB5Ll9jb3JlLm11bHRpYXJyYXmUjAZzY2FsYXKUk5SMBW51bXB5lIwFZHR5cGWUk5SMAmY4lImIh5RSlChLA4wBPJROTk5K/////0r/////SwB0lGJDCKW/73RsIPW/lIaUUpRoA2gJQwglGuN9OLr7v5SGlFKUaANoCUMIzX951zOs97+UhpRSlGgDaAlDCM1/edczrPe/lIaUUpRoA2gJQwhOJYbOZxLxv5SGlFKUaANoCUMI++6pEiVo+7+UhpRSlGgDaAlDCDSlSA5ecxHAlIaUUpRoA2gJQwh6OKX7VbIVQJSGlFKUaANoCUMI3LDOFqus87+UhpRSlGgDaAlDCCTiVN8YYOs/lIaUUpRoA2gJQwh7Ee3C51UbQJSGlFKUaANoCUMIQrJ1YmPsFECUhpRSlGgDaAlDCCdYI4o/MyRAlIaUUpRoA2gJQwhBo65sTYbqv5SGlFKUaANoCUMI8FlCC9OXH0CUhpRSlGgDaAlDCIueUxBicva/lIaUUpRoA2gJQwiLhP0u7Hv3v5SGlFKUaANoCUMIi4T9Lux797+UhpRSlGgDaAlDCBpeSBuR+fa/lIaUUpRoA2gJQwjyPBqEASHwv5SGlFKUaANoCUMIONMmXWuO/r+UhpRSlGgDaAlDCDsH0x9Xe/y/lIaUUpRoA2gJQwjrumsdtFD1v5SGlFKUaANoCUMIMmWOniWx9r+UhpRSlGgDaAlDCEgm7GNCyAFAlIaUUpRoA2gJQwjn750T8EwMwJSGlFKUaANoCUMIGtCUZE62EkCUhpRSlGgDaAlDCJ0Lj5Yk/ADAlIaUUpRoA2gJQwiAXbPD+PT0v5SGlFKUaANoCUMIVsCW5kmfIcCUhpRSlGgDaAlDCOb7ihSNzCHAlIaUUpRoA2gJQwiokjlb72sdwJSGlFKUaANoCUMIbjnA23la9L+UhpRSlGgDaAlDCLHtxDWieOO/lIaUUpRoA2gJQwjI6/UwCOkgwJSGlFKUaANoCUMI3ZUki4klFsCUhpRSlGgDaAlDCJOdSP/49hvAlIaUUpRoA2gJQwiUx7ucpNzRP5SGlFKUaANoCUMI9Kana0bV+T+UhpRSlGgDaAlDCGmwrxq3dPk/lIaUUpRoA2gJQwgLru3u2oz5P5SGlFKUaANoCUMIC67t7tqM+T+UhpRSlGgDaAlDCIpywTNgyABAlIaUUpRoA2gJQwgsY1QXSWUBQJSGlFKUaANoCUMI6T3Eja963T+UhpRSlGgDaAlDCPw6ci+q/wJAlIaUUpRoA2gJQwiAnZ+81TX6P5SGlFKUaANoCUMI3p9h6LEd+j+UhpRSlGgDaAlDCN6fYeixHfo/lIaUUpRoA2gJQwhza3uwyxABQJSGlFKUaANoCUMIlIqPXvT2+j+UhpRSlGgDaAlDCKp3fwATuPs/lIaUUpRoA2gJQwhwUSXPVRoCQJSGlFKUaANoCUMIRcMtRhOJ8D+UhpRSlGgDaAlDCEXDLUYTifA/lIaUUpRoA2gJQwjZMmZtWuYUQJSGlFKUaANoCUMIuQ4zenD5DkCUhpRSlGgDaAlDCLmy3xMOMvE/lIaUUpRoA2gJQwhd2r7Wmb31P5SGlFKUaANoCUMIHUwMIAVGAECUhpRSlGgDaAlDCJx37c2NjfM/lIaUUpRoA2gJQwicd+3NjY3zP5SGlFKUaANoCUMIzHSgRFcKIMCUhpRSlGgDaAlDCFd8cSVGXfM/lIaUUpRoA2gJQwhXfHElRl3zP5SGlFKUaANoCUMIkFbjmwgK/T+UhpRSlGgDaAlDCLmy3xMOMvE/lIaUUpRoA2gJQwj9qU7J4EAVQJSGlFKUaANoCUMIG3r8WUGG7z+UhpRSlGgDaAlDCF3elWjvzfM/lIaUUpRoA2gJQwhd3pVo783zP5SGlFKUaANoCUMIXd6VaO/N8z+UhpRSlGUu

$$$$
28charg
     RDKit          3D

 80 86  0  0  1  0  0  0  0  0999 V2000
   26.3546   -2.5464   53.9175 C   0  0  0  0  0  0  0  0  0  0  0  0
   25.1913   -1.7926   53.6864 C   0  0  0  0  0  0  0  0  0  0  0  0
   31.3462    0.9494   55.9805 C   0  0  0  0  0  0  0  0  0  0  0  0
   31.2533    2.2283   58.0552 C   0  0  0  0  0  0  0  0  0  0  0  0
   17.4390   -1.2148   52.3271 C   0  0  0  0  0  0  0  0  0  0  0  0
   27.3667   -2.0453   54.7615 C   0  0  0  0  0  0  0  0  0  0  0  0
   22.8233   -1.9938   55.9979 C   0  0  0  0  0  0  0  0  0  0  0  0
   22.2102   -3.0953   56.6210 C   0  0  0  0  0  0  0  0  0  0  0  0
   30.8325    1.1169   57.2931 C   0  0  0  0  0  0  0  0  0  0  0  0
   27.2064   -0.7764   55.3779 C   0  0  0  0  0  0  0  0  0  0  0  0
   22.0592   -1.3106   55.0187 C   0  0  0  0  0  0  0  0  0  0  0  0
   23.8339    0.2487   54.0374 C   0  0  0  0  0  0  0  0  0  0  0  0
   20.3327   -2.7907   55.3619 C   0  0  0  0  0  0  0  0  0  0  0  0
   20.4454    1.1488   53.4423 C   0  0  0  0  0  0  0  0  0  0  0  0
   29.1364   -0.7880   56.9677 C   0  0  0  0  0  0  0  0  0  0  0  0
   32.6276    3.0112   56.1995 C   0  0  0  0  0  0  0  0  0  0  0  0
   32.2307    1.8994   55.4341 C   0  0  0  0  0  0  0  0  0  0  0  0
   32.1558    3.1655   57.5167 C   0  0  0  0  0  0  0  0  0  0  0  0
   15.7147   -2.1357   53.7771 C   0  0  0  0  0  0  0  0  0  0  0  0
   18.4171   -1.8748   53.0729 C   0  0  0  0  0  0  0  0  0  0  0  0
   16.7066   -2.7886   54.5324 C   0  0  0  0  0  0  0  0  0  0  0  0
   26.0629   -0.0033   55.0910 C   0  0  0  0  0  0  0  0  0  0  0  0
   25.0547   -0.5107   54.2591 C   0  0  0  0  0  0  0  0  0  0  0  0
   16.0726   -1.3180   52.6660 C   0  0  0  0  0  0  0  0  0  0  0  0
   18.0682   -2.6233   54.2144 C   0  0  0  0  0  0  0  0  0  0  0  0
   22.5417   -0.1300   54.2949 C   0  0  0  0  0  0  0  0  0  0  0  0
   22.6609    1.8215   53.2459 C   0  0  0  0  0  0  0  0  0  0  0  0
   20.2270    2.3359   52.7894 C   0  0  0  0  0  0  0  0  0  0  0  0
   15.4521    0.5113   51.0421 C   0  0  0  0  0  0  0  0  0  0  0  0
   13.6923   -0.9712   51.9494 C   0  0  0  0  0  0  0  0  0  0  0  0
   14.7339    1.7360   51.6304 C   0  0  0  0  0  0  0  0  0  0  0  0
   12.9815    0.2389   52.5788 C   0  0  0  0  0  0  0  0  0  0  0  0
   29.8858    0.1149   57.9557 C   0  0  0  0  0  0  0  0  0  0  0  0
   20.9598   -3.4982   56.3025 N   0  0  0  0  0  0  0  0  0  0  0  0
   20.8149   -1.7195   54.7303 N   0  0  0  0  0  0  0  0  0  0  0  0
   23.8940    1.5176   53.4735 N   0  0  0  0  0  0  0  0  0  0  0  0
   21.7563    0.8672   53.6913 N   0  0  0  0  0  0  0  0  0  0  0  0
   15.1197   -0.6866   51.8309 N   0  0  0  0  0  0  0  0  0  0  0  0
   19.0478   -3.1948   55.0382 N   0  0  0  0  0  0  0  0  0  0  0  0
   28.1273   -0.1993   56.2971 N   0  0  0  0  0  0  0  0  0  0  0  0
   29.4820   -1.9606   56.8325 O   0  0  0  0  0  0  0  0  0  0  0  0
   13.2786    1.4652   51.7850 N   0  0  0  0  0  0  0  0  0  0  0  0
   21.7463    3.1328   52.5053 S   0  0  0  0  0  0  0  0  0  0  0  0
   26.4714   -3.5191   53.4599 H   0  0  0  0  0  0  0  0  0  0  0  0
   24.4100   -2.1920   53.0570 H   0  0  0  0  0  0  0  0  0  0  0  0
   31.0801    0.0887   55.3856 H   0  0  0  0  0  0  0  0  0  0  0  0
   30.8952    2.3440   59.0682 H   0  0  0  0  0  0  0  0  0  0  0  0
   17.7771   -0.6938   51.4505 H   0  0  0  0  0  0  0  0  0  0  0  0
   28.2441   -2.6535   54.9182 H   0  0  0  0  0  0  0  0  0  0  0  0
   23.8155   -1.6818   56.2823 H   0  0  0  0  0  0  0  0  0  0  0  0
   22.7219   -3.6554   57.3895 H   0  0  0  0  0  0  0  0  0  0  0  0
   19.6871    0.4513   53.7626 H   0  0  0  0  0  0  0  0  0  0  0  0
   33.3175    3.7341   55.7900 H   0  0  0  0  0  0  0  0  0  0  0  0
   32.6184    1.7687   54.4341 H   0  0  0  0  0  0  0  0  0  0  0  0
   32.4881    4.0014   58.1152 H   0  0  0  0  0  0  0  0  0  0  0  0
   14.6899   -2.2611   54.0937 H   0  0  0  0  0  0  0  0  0  0  0  0
   19.4339   -1.7930   52.7346 H   0  0  0  0  0  0  0  0  0  0  0  0
   16.4023   -3.3679   55.3910 H   0  0  0  0  0  0  0  0  0  0  0  0
   25.9310    0.9680   55.5512 H   0  0  0  0  0  0  0  0  0  0  0  0
   19.2997    2.7879   52.4666 H   0  0  0  0  0  0  0  0  0  0  0  0
   16.5076    0.7416   50.9832 H   0  0  0  0  0  0  0  0  0  0  0  0
   15.1306    0.3430   50.0110 H   0  0  0  0  0  0  0  0  0  0  0  0
   13.3008   -1.1374   50.9443 H   0  0  0  0  0  0  0  0  0  0  0  0
   13.4686   -1.8871   52.4914 H   0  0  0  0  0  0  0  0  0  0  0  0
   14.8886    2.6051   50.9879 H   0  0  0  0  0  0  0  0  0  0  0  0
   15.1784    1.9734   52.5994 H   0  0  0  0  0  0  0  0  0  0  0  0
   11.9060    0.0602   52.6090 H   0  0  0  0  0  0  0  0  0  0  0  0
   13.3126    0.3681   53.6115 H   0  0  0  0  0  0  0  0  0  0  0  0
   30.4671   -0.5028   58.6384 H   0  0  0  0  0  0  0  0  0  0  0  0
   29.1545    0.6492   58.5652 H   0  0  0  0  0  0  0  0  0  0  0  0
   18.6820   -3.8863   55.6877 H   0  0  0  0  0  0  0  0  0  0  0  0
   27.9512    0.7752   56.5404 H   0  0  0  0  0  0  0  0  0  0  0  0
   12.9616    1.2528   50.8463 H   0  0  0  0  0  0  0  0  0  0  0  0
   12.4732    2.6468   52.1859 C   0  0  0  0  0  0  0  0  0  0  0  0
   12.7951    3.1892   53.5997 C   0  0  0  0  0  0  0  0  0  0  0  0
   12.5990    3.4276   51.4284 H   0  0  0  0  0  0  0  0  0  0  0  0
   11.4289    2.3265   52.1376 H   0  0  0  0  0  0  0  0  0  0  0  0
   12.2285    4.0993   53.7949 H   0  0  0  0  0  0  0  0  0  0  0  0
   12.5384    2.4703   54.3788 H   0  0  0  0  0  0  0  0  0  0  0  0
   13.8451    3.4581   53.7135 H   0  0  0  0  0  0  0  0  0  0  0  0
  1  2  2  0
  1  6  1  0
  1 44  1  0
  2 23  1  0
  2 45  1  0
  3  9  2  0
  3 17  1  0
  3 46  1  0
  4  9  1  0
  4 18  2  0
  4 47  1  0
  5 20  2  0
  5 24  1  0
  5 48  1  0
  6 10  2  0
  6 49  1  0
  7  8  2  0
  7 11  1  0
  7 50  1  0
  8 34  1  0
  8 51  1  0
  9 33  1  0
 10 22  1  0
 10 40  1  0
 11 26  1  0
 11 35  2  0
 12 23  1  0
 12 26  2  0
 12 36  1  0
 13 34  2  0
 13 35  1  0
 13 39  1  0
 14 28  2  0
 14 37  1  0
 14 52  1  0
 15 33  1  0
 15 40  1  0
 15 41  2  0
 16 17  2  0
 16 18  1  0
 16 53  1  0
 17 54  1  0
 18 55  1  0
 19 21  1  0
 19 24  2  0
 19 56  1  0
 20 25  1  0
 20 57  1  0
 21 25  2  0
 21 58  1  0
 22 23  2  0
 22 59  1  0
 24 38  1  0
 25 39  1  0
 26 37  1  0
 27 36  2  0
 27 37  1  0
 27 43  1  0
 28 43  1  0
 28 60  1  0
 29 31  1  0
 29 38  1  0
 29 61  1  0
 29 62  1  0
 30 32  1  0
 30 38  1  0
 30 63  1  0
 30 64  1  0
 31 42  1  0
 31 65  1  0
 31 66  1  0
 32 42  1  0
 32 67  1  0
 32 68  1  0
 33 69  1  0
 33 70  1  0
 39 71  1  0
 40 72  1  0
 42 73  1  0
 42 74  1  0
 74 75  1  0
 74 76  1  0
 74 77  1  0
 75 78  1  0
 75 79  1  0
 75 80  1  0
M  CHG  1  42   1
M  END
>  <i_fepmapper_affinity>  (3) 
1

>  <i_fepmapper_unit>  (3) 
1

>  <i_glide_mcs_nalchemical_region>  (3) 
8

>  <i_i_glide_confnum>  (3) 
3

>  <i_i_glide_lignum>  (3) 
1

>  <i_i_glide_posenum>  (3) 
15

>  <i_i_glide_rotatable_bonds>  (3) 
10

>  <i_m_Source_File_Index>  (3) 
6

>  <i_mpc_Hbond_Acceptors>  (3) 
4

>  <i_mpc_Hbond_Donors>  (3) 
2

>  <i_mpc_Rotatable_Bonds>  (3) 
10

>  <b_m_subgroup_collapsed>  (3) 
0

>  <r_fepplus_exp_dg>  (3) 
-10.7

>  <r_glide_mcs_similarity>  (3) 
0.913043

>  <r_glide_shape_similarity>  (3) 
0.912861

>  <r_i_docking_score>  (3) 
-16.46

>  <r_i_glide_ecoul>  (3) 
-17.9723

>  <r_i_glide_eff_state_penalty>  (3) 
0

>  <r_i_glide_einternal>  (3) 
4.73598

>  <r_i_glide_emodel>  (3) 
-185.151

>  <r_i_glide_energy>  (3) 
-94.8904

>  <r_i_glide_erotb>  (3) 
0.371574

>  <r_i_glide_esite>  (3) 
-0.028271

>  <r_i_glide_evdw>  (3) 
-76.9181

>  <r_i_glide_gscore>  (3) 
-16.46

>  <r_i_glide_hbond>  (3) 
-0.969501

>  <r_i_glide_ligand_efficiency>  (3) 
-0.365778

>  <r_i_glide_ligand_efficiency_ln>  (3) 
-3.42442

>  <r_i_glide_ligand_efficiency_sa>  (3) 
-1.30103

>  <r_i_glide_lipo>  (3) 
-7.09613

>  <r_i_glide_metal>  (3) 
0

>  <r_i_glide_rewards>  (3) 
-2.19594

>  <r_i_glide_rmsd>  (3) 
0.0342805

>  <r_mpc_ALogP>  (3) 
4.8883

>  <r_mpc_Molecular_Weight>  (3) 
615.786

>  <r_mpc_Polar_Surface_Area>  (3) 
120.65

>  <s_fep_fragname>  (3) 
none

>  <s_glide_best_reflig>  (3) 
21

>  <s_glide_core_atoms_lig>  (3) 
31 29 38 30 32 24 5 20 25 21 19 39 13 34 8 7 11 35 26 12 36 27 37 43 28 14 23 2 1 6 10 22 40 15 41 33 9 3 17 16 18 4

>  <s_glide_core_atoms_ref>  (3) 
31 29 38 30 32 24 5 20 25 21 19 39 13 34 8 7 11 35 26 12 36 27 37 43 28 14 23 2 1 6 10 22 40 15 41 33 9 3 17 16 18 4

>  <s_glide_core_constrain_type>  (3) 
snapped_core_restrain

>  <s_glide_core_smarts>  (3) 
CCN(CC)c1ccc(cc1)Nc2nccc(n2)-c3c(nc(n34)scc4)-c5cccc(c5)NC(=O)Cc6ccccc6

>  <s_glide_mcs_list>  (3) 
CCN(CC)c1ccc(cc1)Nc2nccc(n2)-c3c(nc(n34)scc4)-c5cccc(c5)NC(=O)Cc6ccccc6

>  <s_glide_mcs_pose_align_method>  (3) 
snapped_core_restrain

>  <s_glide_mcs_ref_pose_origin>  (3) 
ligand_aligner_least_squares

>  <s_i_glide_gridfile>  (3) 
glide-grid_1

>  <s_leadoptmap_moltype>  (3) 
ligand

>  <s_m_Source_File>  (3) 
egfr_ligands.sdf

>  <s_m_Source_Path>  (3) 
/cfs/riesbenj/FE_Calculations/openfe_industry_benchmark/IndustryBenchmarks2024/industry_benchmarks/input_structures/prepared_structures/charge_annihilation_set/egfr

>  <s_m_entry_id>  (3) 
76

>  <s_m_entry_name>  (3) 
28charg

>  <s_m_subgroup_title>  (3) 
egfr_ca->egfr_ligands

>  <s_m_subgroupid>  (3) 
egfr_ca->egfr_ligands

>  <s_mpc_SMILES>  (3) 
c1ccccc1CC(=O)Nc(ccc2)cc2-c(n3)c(n(c34)ccs4)-c5ccnc(n5)Nc6ccc(cc6)N7CC[NH+](CC)CC7

>  <experimental dG reference units>  (3) 
kcal/mol

>  <experimental dG reference field>  (3) 
r_fepplus_exp_dg

>  <kJ/mol experimental dG>  (3) 
-44.7688

>  <kcal/mol experimental dG>  (3) 
-10.7

>  <AmberAM1BCCCache>  (3) 
gASVSwYAAAAAAABdlCiMFm51bXB5Ll9jb3JlLm11bHRpYXJyYXmUjAZzY2FsYXKUk5SMBW51bXB5lIwFZHR5cGWUk5SMAmY4lImIh5RSlChLA4wBPJROTk5K/////0r/////SwB0lGJDCGUCjC4IjvW/lIaUUpRoA2gJQwgvjKeiB0X6v5SGlFKUaANoCUMI+jkkzABs97+UhpRSlGgDaAlDCPo5JMwAbPe/lIaUUpRoA2gJQwgm6mIh1nr0v5SGlFKUaANoCUMISwuRuGVT+7+UhpRSlGgDaAlDCA7h6GfY4BHAlIaUUpRoA2gJQwhLjDzqPqoVQJSGlFKUaANoCUMI+Q+D3Zj48r+UhpRSlGgDaAlDCLPrvlys5eg/lIaUUpRoA2gJQwg2gJXJiUAbQJSGlFKUaANoCUMIq6hU95CIFECUhpRSlGgDaAlDCKaXC7c9WCRAlIaUUpRoA2gJQwgLWA9LuH7pv5SGlFKUaANoCUMIV3p59SWSH0CUhpRSlGgDaAlDCIdKcv4Fw/a/lIaUUpRoA2gJQwgSNL9eWqj3v5SGlFKUaANoCUMIEjS/Xlqo97+UhpRSlGgDaAlDCCbqYiHWevS/lIaUUpRoA2gJQwhdmjOpMLT5v5SGlFKUaANoCUMIXZozqTC0+b+UhpRSlGgDaAlDCNM4jE9Vjfu/lIaUUpRoA2gJQwjyEtpgDeX0v5SGlFKUaANoCUMIMDjaIwxu1T+UhpRSlGgDaAlDCEchNpTGbwBAlIaUUpRoA2gJQwgcKuG7RYYLwJSGlFKUaANoCUMIpD1cVQKtEkCUhpRSlGgDaAlDCDbN4u1a7wDAlIaUUpRoA2gJQwj4dYOT4Mf8P5SGlFKUaANoCUMI+HWDk+DH/D+UhpRSlGgDaAlDCPMhQbYQ4fM/lIaUUpRoA2gJQwjzIUG2EOHzP5SGlFKUaANoCUMIZhziD36E9L+UhpRSlGgDaAlDCFIxXIcOliHAlIaUUpRoA2gJQwg30G18s+IhwJSGlFKUaANoCUMITSZTgClpHcCUhpRSlGgDaAlDCAVRIyoCdvS/lIaUUpRoA2gJQwhtv5J3/W0dwJSGlFKUaANoCUMI9V2c57rTIMCUhpRSlGgDaAlDCH8+6lrWURbAlIaUUpRoA2gJQwi24Q/y9Q8cwJSGlFKUaANoCUMIDXKNW4oGIMCUhpRSlGgDaAlDCFA2Nhk5wcg/lIaUUpRoA2gJQwikisDFBer5P5SGlFKUaANoCUMICh98ZSEf+j+UhpRSlGgDaAlDCP+MgvHh0fk/lIaUUpRoA2gJQwj/jILx4dH5P5SGlFKUaANoCUMI/sOFN0Kr+T+UhpRSlGgDaAlDCHv4vlSPBQBAlIaUUpRoA2gJQwj3eWqWyfsAQJSGlFKUaANoCUMIMmJ7EnTh2T+UhpRSlGgDaAlDCEip25o/LgNAlIaUUpRoA2gJQwj/jILx4dH5P5SGlFKUaANoCUMI3/NC+g3N+T+UhpRSlGgDaAlDCN/zQvoNzfk/lIaUUpRoA2gJQwj+w4U3Qqv5P5SGlFKUaANoCUMIGr5pY978/T+UhpRSlGgDaAlDCBq+aWPe/P0/lIaUUpRoA2gJQwh/vdQLRvj7P5SGlFKUaANoCUMIhiy0sL0HAkCUhpRSlGgDaAlDCM0CUO0yGu4/lIaUUpRoA2gJQwjNAlDtMhruP5SGlFKUaANoCUMIzQJQ7TIa7j+UhpRSlGgDaAlDCM0CUO0yGu4/lIaUUpRoA2gJQwjM4Vug6l/zP5SGlFKUaANoCUMIzOFboOpf8z+UhpRSlGgDaAlDCMzhW6DqX/M/lIaUUpRoA2gJQwjM4Vug6l/zP5SGlFKUaANoCUMIck/zs70F8D+UhpRSlGgDaAlDCHJP87O9BfA/lIaUUpRoA2gJQwhkoC1eDt0UQJSGlFKUaANoCUMIDhxBSoDwDkCUhpRSlGgDaAlDCHuayPBnGRVAlIaUUpRoA2gJQwjEE7Wv53H0P5SGlFKUaANoCUMIFNa6Rkld+b+UhpRSlGgDaAlDCBeEfWeEDPQ/lIaUUpRoA2gJQwgXhH1nhAz0P5SGlFKUaANoCUMIjs4WcCoC7T+UhpRSlGgDaAlDCI7OFnAqAu0/lIaUUpRoA2gJQwiOzhZwKgLtP5SGlFKUZS4=

$$$$
29charg
     RDKit          3D

 74 79  0  0  1  0  0  0  0  0999 V2000
   26.3431   -2.5427   53.9033 C   0  0  0  0  0  0  0  0  0  0  0  0
   25.1844   -1.7827   53.6681 C   0  0  0  0  0  0  0  0  0  0  0  0
   31.3428    0.9445   55.9612 C   0  0  0  0  0  0  0  0  0  0  0  0
   31.2582    2.2112   58.0424 C   0  0  0  0  0  0  0  0  0  0  0  0
   17.4950   -1.3446   52.2067 C   0  0  0  0  0  0  0  0  0  0  0  0
   27.3500   -2.0444   54.7529 C   0  0  0  0  0  0  0  0  0  0  0  0
   22.8251   -1.9942   55.9962 C   0  0  0  0  0  0  0  0  0  0  0  0
   22.2139   -3.0955   56.6186 C   0  0  0  0  0  0  0  0  0  0  0  0
   30.8335    1.1058   57.2774 C   0  0  0  0  0  0  0  0  0  0  0  0
   27.1947   -0.7818   55.3768 C   0  0  0  0  0  0  0  0  0  0  0  0
   22.0582   -1.3097   55.0217 C   0  0  0  0  0  0  0  0  0  0  0  0
   23.8303    0.2569   54.0338 C   0  0  0  0  0  0  0  0  0  0  0  0
   20.3265   -2.7825   55.3656 C   0  0  0  0  0  0  0  0  0  0  0  0
   20.4267    1.1515   53.4664 C   0  0  0  0  0  0  0  0  0  0  0  0
   29.1348   -0.7952   56.9500 C   0  0  0  0  0  0  0  0  0  0  0  0
   32.6301    2.9991   56.1929 C   0  0  0  0  0  0  0  0  0  0  0  0
   32.2317    1.8937   55.4216 C   0  0  0  0  0  0  0  0  0  0  0  0
   32.1645    3.1449   57.5066 C   0  0  0  0  0  0  0  0  0  0  0  0
   15.7081   -2.2996   53.5751 C   0  0  0  0  0  0  0  0  0  0  0  0
   18.4556   -1.8539   53.0932 C   0  0  0  0  0  0  0  0  0  0  0  0
   16.6759   -2.7727   54.4808 C   0  0  0  0  0  0  0  0  0  0  0  0
   26.0548   -0.0076   55.0904 C   0  0  0  0  0  0  0  0  0  0  0  0
   25.0468   -0.5053   54.2517 C   0  0  0  0  0  0  0  0  0  0  0  0
   16.1349   -1.6008   52.4318 C   0  0  0  0  0  0  0  0  0  0  0  0
   18.0559   -2.6023   54.2215 C   0  0  0  0  0  0  0  0  0  0  0  0
   22.5376   -0.1240   54.3044 C   0  0  0  0  0  0  0  0  0  0  0  0
   22.6466    1.8175   53.2511 C   0  0  0  0  0  0  0  0  0  0  0  0
   20.2198    2.3502   52.8301 C   0  0  0  0  0  0  0  0  0  0  0  0
   29.8868    0.1052   57.9322 C   0  0  0  0  0  0  0  0  0  0  0  0
   20.9592   -3.4956   56.2948 N   0  0  0  0  0  0  0  0  0  0  0  0
   20.8110   -1.7091   54.7336 N   0  0  0  0  0  0  0  0  0  0  0  0
   23.8882    1.5190   53.4623 N   0  0  0  0  0  0  0  0  0  0  0  0
   21.7438    0.8687   53.7038 N   0  0  0  0  0  0  0  0  0  0  0  0
   19.0415   -3.1689   55.0418 N   0  0  0  0  0  0  0  0  0  0  0  0
   28.1176   -0.2092   56.2908 N   0  0  0  0  0  0  0  0  0  0  0  0
   29.4804   -1.9639   56.8122 O   0  0  0  0  0  0  0  0  0  0  0  0
   21.7489    3.1382   52.5302 S   0  0  0  0  0  0  0  0  0  0  0  0
   26.4613   -3.5064   53.4341 H   0  0  0  0  0  0  0  0  0  0  0  0
   24.4057   -2.1736   53.0312 H   0  0  0  0  0  0  0  0  0  0  0  0
   31.0754    0.0872   55.3661 H   0  0  0  0  0  0  0  0  0  0  0  0
   30.9074    2.3307   59.0574 H   0  0  0  0  0  0  0  0  0  0  0  0
   17.8105   -0.7687   51.3500 H   0  0  0  0  0  0  0  0  0  0  0  0
   28.2248   -2.6543   54.9091 H   0  0  0  0  0  0  0  0  0  0  0  0
   23.8216   -1.6843   56.2774 H   0  0  0  0  0  0  0  0  0  0  0  0
   22.7241   -3.6652   57.3801 H   0  0  0  0  0  0  0  0  0  0  0  0
   19.6647    0.4604   53.7955 H   0  0  0  0  0  0  0  0  0  0  0  0
   33.3291    3.7228   55.7892 H   0  0  0  0  0  0  0  0  0  0  0  0
   32.6244    1.7664   54.4244 H   0  0  0  0  0  0  0  0  0  0  0  0
   32.5021    3.9767   58.1101 H   0  0  0  0  0  0  0  0  0  0  0  0
   19.5003   -1.6793   52.8905 H   0  0  0  0  0  0  0  0  0  0  0  0
   16.3388   -3.2663   55.3742 H   0  0  0  0  0  0  0  0  0  0  0  0
   25.9297    0.9623   55.5522 H   0  0  0  0  0  0  0  0  0  0  0  0
   19.3077    2.8477   52.5433 H   0  0  0  0  0  0  0  0  0  0  0  0
   30.4776   -0.5175   58.6100 H   0  0  0  0  0  0  0  0  0  0  0  0
   29.1670    0.6372   58.5522 H   0  0  0  0  0  0  0  0  0  0  0  0
   18.6929   -3.9030   55.6501 H   0  0  0  0  0  0  0  0  0  0  0  0
   27.9403    0.7633   56.5392 H   0  0  0  0  0  0  0  0  0  0  0  0
   15.4358   -1.1710   51.7339 H   0  0  0  0  0  0  0  0  0  0  0  0
   14.2129   -2.4587   53.8631 C   0  0  0  0  0  0  0  0  0  0  0  0
   14.0994   -3.0270   54.7831 H   0  0  0  0  0  0  0  0  0  0  0  0
   13.7976   -1.4773   54.0807 H   0  0  0  0  0  0  0  0  0  0  0  0
   13.3763   -3.1479   52.7474 C   0  0  0  0  0  0  0  0  0  0  0  0
   13.8002   -4.1335   52.5558 H   0  0  0  0  0  0  0  0  0  0  0  0
   12.3607   -3.3034   53.1194 H   0  0  0  0  0  0  0  0  0  0  0  0
   13.2917   -2.4169   51.4396 N   0  0  0  0  0  0  0  0  0  0  0  0
   14.2391   -2.3585   51.0713 H   0  0  0  0  0  0  0  0  0  0  0  0
   12.4955   -3.1626   50.4341 C   0  0  0  0  0  0  0  0  0  0  0  0
   11.4614   -3.1103   50.7587 H   0  0  0  0  0  0  0  0  0  0  0  0
   12.5698   -2.7008   49.4526 H   0  0  0  0  0  0  0  0  0  0  0  0
   12.7955   -4.2030   50.3479 H   0  0  0  0  0  0  0  0  0  0  0  0
   12.7643   -1.0259   51.5579 C   0  0  0  0  0  0  0  0  0  0  0  0
   11.7619   -1.0301   51.9936 H   0  0  0  0  0  0  0  0  0  0  0  0
   13.4071   -0.4022   52.1783 H   0  0  0  0  0  0  0  0  0  0  0  0
   12.7115   -0.5515   50.5757 H   0  0  0  0  0  0  0  0  0  0  0  0
  1  2  2  0
  1  6  1  0
  1 38  1  0
  2 23  1  0
  2 39  1  0
  3  9  2  0
  3 17  1  0
  3 40  1  0
  4  9  1  0
  4 18  2  0
  4 41  1  0
  5 20  2  0
  5 24  1  0
  5 42  1  0
  6 10  2  0
  6 43  1  0
  7  8  2  0
  7 11  1  0
  7 44  1  0
  8 30  1  0
  8 45  1  0
  9 29  1  0
 10 22  1  0
 10 35  1  0
 11 26  1  0
 11 31  2  0
 12 23  1  0
 12 26  2  0
 12 32  1  0
 13 30  2  0
 13 31  1  0
 13 34  1  0
 14 28  2  0
 14 33  1  0
 14 46  1  0
 15 29  1  0
 15 35  1  0
 15 36  2  0
 16 17  2  0
 16 18  1  0
 16 47  1  0
 17 48  1  0
 18 49  1  0
 19 21  1  0
 19 24  2  0
 19 59  1  0
 20 25  1  0
 20 50  1  0
 21 25  2  0
 21 51  1  0
 22 23  2  0
 22 52  1  0
 24 58  1  0
 25 34  1  0
 26 33  1  0
 27 32  2  0
 27 33  1  0
 27 37  1  0
 28 37  1  0
 28 53  1  0
 29 54  1  0
 29 55  1  0
 34 56  1  0
 35 57  1  0
 59 60  1  0
 59 61  1  0
 59 62  1  0
 62 63  1  0
 62 64  1  0
 62 65  1  0
 65 66  1  0
 65 67  1  0
 65 71  1  0
 67 68  1  0
 67 69  1  0
 67 70  1  0
 71 72  1  0
 71 73  1  0
 71 74  1  0
M  CHG  1  65   1
M  END
>  <i_fepmapper_affinity>  (4) 
1

>  <i_fepmapper_unit>  (4) 
1

>  <i_glide_mcs_nalchemical_region>  (4) 
32

>  <i_i_glide_confnum>  (4) 
20

>  <i_i_glide_lignum>  (4) 
1

>  <i_i_glide_posenum>  (4) 
5

>  <i_i_glide_rotatable_bonds>  (4) 
11

>  <i_m_Source_File_Index>  (4) 
8

>  <i_mpc_Hbond_Acceptors>  (4) 
4

>  <i_mpc_Hbond_Donors>  (4) 
2

>  <i_mpc_Rotatable_Bonds>  (4) 
11

>  <b_m_subgroup_collapsed>  (4) 
0

>  <r_fepplus_exp_dg>  (4) 
-10.46

>  <r_glide_mcs_similarity>  (4) 
0.770833

>  <r_glide_shape_similarity>  (4) 
0.881055

>  <r_i_docking_score>  (4) 
-15.9878

>  <r_i_glide_ecoul>  (4) 
-16.2629

>  <r_i_glide_eff_state_penalty>  (4) 
0

>  <r_i_glide_einternal>  (4) 
3.79165

>  <r_i_glide_emodel>  (4) 
-164.407

>  <r_i_glide_energy>  (4) 
-90.7635

>  <r_i_glide_erotb>  (4) 
0.537393

>  <r_i_glide_esite>  (4) 
-0.0180226

>  <r_i_glide_evdw>  (4) 
-74.5006

>  <r_i_glide_gscore>  (4) 
-15.9878

>  <r_i_glide_hbond>  (4) 
-0.965674

>  <r_i_glide_ligand_efficiency>  (4) 
-0.380663

>  <r_i_glide_ligand_efficiency_ln>  (4) 
-3.37462

>  <r_i_glide_ligand_efficiency_sa>  (4) 
-1.32319

>  <r_i_glide_lipo>  (4) 
-7.23967

>  <r_i_glide_metal>  (4) 
0

>  <r_i_glide_rewards>  (4) 
-2.13741

>  <r_i_glide_rmsd>  (4) 
0.0310073

>  <r_mpc_ALogP>  (4) 
4.8148

>  <r_mpc_Molecular_Weight>  (4) 
574.733

>  <r_mpc_Polar_Surface_Area>  (4) 
117.41

>  <s_fep_fragname>  (4) 
472b07b:7719a1c

>  <s_glide_best_reflig>  (4) 
21

>  <s_glide_core_atoms_lig>  (4) 
4 18 16 17 3 9 29 15 36 35 10 6 1 2 23 22 12 32 26 33 27 14 28 37 11 7 8 30 13 31 34 25 21 19 24 5 20

>  <s_glide_core_atoms_ref>  (4) 
3 17 16 18 4 9 29 15 36 35 10 6 1 2 23 22 12 32 26 33 27 14 28 37 11 7 8 30 13 31 34 25 20 5 24 19 21

>  <s_glide_core_constrain_type>  (4) 
snapped_core_restrain

>  <s_glide_core_smarts>  (4) 
c1ccccc1CC(=O)Nc2cccc(c2)-c(n3)c(n(c34)ccs4)-c5ccnc(n5)Nc6ccccc6

>  <s_glide_mcs_list>  (4) 
c1ccccc1CC(=O)Nc2cccc(c2)-c(n3)c(n(c34)ccs4)-c5ccnc(n5)Nc6ccccc6

>  <s_glide_mcs_pose_align_method>  (4) 
snapped_core_restrain

>  <s_glide_mcs_ref_pose_origin>  (4) 
phase_align_core

>  <s_i_glide_gridfile>  (4) 
glide-grid_1

>  <s_leadoptmap_moltype>  (4) 
472b07b9fcf2c2451e8781e944bf5f77cd8457c8:7719a1c782a1ba91c031a682a0a2f8658209adbf

>  <s_m_Source_File>  (4) 
egfr_ligands.sdf

>  <s_m_Source_Path>  (4) 
/cfs/riesbenj/FE_Calculations/openfe_industry_benchmark/IndustryBenchmarks2024/industry_benchmarks/input_structures/prepared_structures/charge_annihilation_set/egfr

>  <s_m_entry_id>  (4) 
78

>  <s_m_entry_name>  (4) 
29charg

>  <s_m_subgroup_title>  (4) 
egfr_ca->egfr_ligands

>  <s_m_subgroupid>  (4) 
egfr_ca->egfr_ligands

>  <s_mpc_SMILES>  (4) 
c1ccccc1CC(=O)Nc(ccc2)cc2-c(n3)c(n(c34)ccs4)-c5ccnc(n5)Nc(ccc6)cc6CC[NH+](C)C

>  <experimental dG reference units>  (4) 
kcal/mol

>  <experimental dG reference field>  (4) 
r_fepplus_exp_dg

>  <kJ/mol experimental dG>  (4) 
-43.76464000000001

>  <kcal/mol experimental dG>  (4) 
-10.46

>  <AmberAM1BCCCache>  (4) 
gASV2QUAAAAAAABdlCiMFm51bXB5Ll9jb3JlLm11bHRpYXJyYXmUjAZzY2FsYXKUk5SMBW51bXB5lIwFZHR5cGWUk5SMAmY4lImIh5RSlChLA4wBPJROTk5K/////0r/////SwB0lGJDCCi6Z46nIPW/lIaUUpRoA2gJQwimFFuXc7r7v5SGlFKUaANoCUMIT3rx8G6s97+UhpRSlGgDaAlDCE968fBurPe/lIaUUpRoA2gJQwhB2wPzsc7zv5SGlFKUaANoCUMIphRbl3O6+7+UhpRSlGgDaAlDCN8g9J2ZkRHAlIaUUpRoA2gJQwjZOUc1R7IVQJSGlFKUaANoCUMIFrDKh55887+UhpRSlGgDaAlDCJP2bFsT/+o/lIaUUpRoA2gJQwj2GdV/bQ0bQJSGlFKUaANoCUMIi7l8CfuvFECUhpRSlGgDaAlDCJ/axUcdISRAlIaUUpRoA2gJQwgwq679pMXpv5SGlFKUaANoCUMIUFvkRMSXH0CUhpRSlGgDaAlDCFSUR9Lkova/lIaUUpRoA2gJQwgNf3VIJ3z3v5SGlFKUaANoCUMIDX91SCd897+UhpRSlGgDaAlDCMXuqKgrEvW/lIaUUpRoA2gJQwiPhrjwElHvv5SGlFKUaANoCUMI/8gaH+6+/r+UhpRSlGgDaAlDCL0BSzmSe/y/lIaUUpRoA2gJQwhAwa0RPNj0v5SGlFKUaANoCUMIKZOvVTnE+r+UhpRSlGgDaAlDCN5N33ukmv0/lIaUUpRoA2gJQwgTAGr+7osLwJSGlFKUaANoCUMIedE2nj+2EkCUhpRSlGgDaAlDCN4ISyNC/ADAlIaUUpRoA2gJQwgDWCvdM/X0v5SGlFKUaANoCUMIqwTCJgVsIcCUhpRSlGgDaAlDCNr490u45CHAlIaUUpRoA2gJQwgakLYLEHgdwJSGlFKUaANoCUMIfCowRkS79L+UhpRSlGgDaAlDCPs8OfIotSDAlIaUUpRoA2gJQwjMLqNeWh4WwJSGlFKUaANoCUMIZp2H2/XqG8CUhpRSlGgDaAlDCF81+cYLocQ/lIaUUpRoA2gJQwjQrvF957z5P5SGlFKUaANoCUMI57U3AXx0+T+UhpRSlGgDaAlDCC6xs6nDpPk/lIaUUpRoA2gJQwgusbOpw6T5P5SGlFKUaANoCUMIg2VzMT6p/D+UhpRSlGgDaAlDCEl1BadCyABAlIaUUpRoA2gJQwjUa/330SgBQJSGlFKUaANoCUMI4FPkJ8N53T+UhpRSlGgDaAlDCIw81YyeCwNAlIaUUpRoA2gJQwi3p6v6UgX6P5SGlFKUaANoCUMIFKptJi/t+T+UhpRSlGgDaAlDCBSqbSYv7fk/lIaUUpRoA2gJQwi+fg1Ws2cAQJSGlFKUaANoCUMI0chHX12z+D+UhpRSlGgDaAlDCCl9B+fXt/s/lIaUUpRoA2gJQwjqWO2Z8OkBQJSGlFKUaANoCUMIH8t3WLRw8D+UhpRSlGgDaAlDCB/Ld1i0cPA/lIaUUpRoA2gJQwjTwaOifVsUQJSGlFKUaANoCUMI1hM5GS/hDkCUhpRSlGgDaAlDCDh3WeDu3vc/lIaUUpRoA2gJQwgZM3k4VkTgv5SGlFKUaANoCUMIyudL/VGL6T+UhpRSlGgDaAlDCMrnS/1Ri+k/lIaUUpRoA2gJQwj64zW9fojzP5SGlFKUaANoCUMI4c9ESa9V9D+UhpRSlGgDaAlDCOHPREmvVfQ/lIaUUpRoA2gJQwhkWp+lkwsgwJSGlFKUaANoCUMIiazRGMA0FUCUhpRSlGgDaAlDCH1qIe68iu4/lIaUUpRoA2gJQwioV12VC+nzP5SGlFKUaANoCUMIqFddlQvp8z+UhpRSlGgDaAlDCKhXXZUL6fM/lIaUUpRoA2gJQwh9aiHuvIruP5SGlFKUaANoCUMIqFddlQvp8z+UhpRSlGgDaAlDCKhXXZUL6fM/lIaUUpRoA2gJQwioV12VC+nzP5SGlFKUZS4=

$$$$
30charg
     RDKit          3D

 69 75  0  0  1  0  0  0  0  0999 V2000
   26.3478   -2.5359   53.9119 C   0  0  0  0  0  0  0  0  0  0  0  0
   25.1864   -1.7802   53.6817 C   0  0  0  0  0  0  0  0  0  0  0  0
   31.2675    2.2136   58.0505 C   0  0  0  0  0  0  0  0  0  0  0  0
   31.3503    0.9522   55.9673 C   0  0  0  0  0  0  0  0  0  0  0  0
   17.4828   -1.3641   52.2004 C   0  0  0  0  0  0  0  0  0  0  0  0
   27.3583   -2.0351   54.7567 C   0  0  0  0  0  0  0  0  0  0  0  0
   22.8275   -1.9888   55.9976 C   0  0  0  0  0  0  0  0  0  0  0  0
   22.2194   -3.0903   56.6225 C   0  0  0  0  0  0  0  0  0  0  0  0
   30.8442    1.1100   57.2824 C   0  0  0  0  0  0  0  0  0  0  0  0
   27.2010   -0.7692   55.3785 C   0  0  0  0  0  0  0  0  0  0  0  0
   22.0590   -1.3129   55.0230 C   0  0  0  0  0  0  0  0  0  0  0  0
   23.8274    0.2604   54.0388 C   0  0  0  0  0  0  0  0  0  0  0  0
   20.3309   -2.7879   55.3672 C   0  0  0  0  0  0  0  0  0  0  0  0
   20.4259    1.1471   53.4691 C   0  0  0  0  0  0  0  0  0  0  0  0
   29.1367   -0.7904   56.9589 C   0  0  0  0  0  0  0  0  0  0  0  0
   32.6290    3.0151   56.1977 C   0  0  0  0  0  0  0  0  0  0  0  0
   32.1656    3.1547   57.5155 C   0  0  0  0  0  0  0  0  0  0  0  0
   32.2301    1.9071   55.4269 C   0  0  0  0  0  0  0  0  0  0  0  0
   15.6990   -2.2804   53.5882 C   0  0  0  0  0  0  0  0  0  0  0  0
   18.4438   -1.8608   53.0976 C   0  0  0  0  0  0  0  0  0  0  0  0
   16.6765   -2.7645   54.4854 C   0  0  0  0  0  0  0  0  0  0  0  0
   26.0590    0.0017   55.0919 C   0  0  0  0  0  0  0  0  0  0  0  0
   25.0476   -0.4989   54.2541 C   0  0  0  0  0  0  0  0  0  0  0  0
   16.1145   -1.6108   52.4162 C   0  0  0  0  0  0  0  0  0  0  0  0
   18.0555   -2.6062   54.2223 C   0  0  0  0  0  0  0  0  0  0  0  0
   22.5408   -0.1271   54.3049 C   0  0  0  0  0  0  0  0  0  0  0  0
   22.6464    1.8191   53.2525 C   0  0  0  0  0  0  0  0  0  0  0  0
   20.2204    2.3495   52.8330 C   0  0  0  0  0  0  0  0  0  0  0  0
   29.8987    0.1046   57.9420 C   0  0  0  0  0  0  0  0  0  0  0  0
   20.9696   -3.4961   56.3061 N   0  0  0  0  0  0  0  0  0  0  0  0
   20.8142   -1.7124   54.7359 N   0  0  0  0  0  0  0  0  0  0  0  0
   23.8845    1.5128   53.4600 N   0  0  0  0  0  0  0  0  0  0  0  0
   21.7407    0.8649   53.7063 N   0  0  0  0  0  0  0  0  0  0  0  0
   15.1005   -1.1779   51.3660 C   0  0  0  0  0  0  0  0  0  0  0  0
   19.0403   -3.1814   55.0424 N   0  0  0  0  0  0  0  0  0  0  0  0
   28.1234   -0.2016   56.2955 N   0  0  0  0  0  0  0  0  0  0  0  0
   29.4841   -1.9626   56.8215 O   0  0  0  0  0  0  0  0  0  0  0  0
   21.7485    3.1379   52.5264 S   0  0  0  0  0  0  0  0  0  0  0  0
   26.4648   -3.5069   53.4531 H   0  0  0  0  0  0  0  0  0  0  0  0
   24.4051   -2.1778   53.0516 H   0  0  0  0  0  0  0  0  0  0  0  0
   30.9156    2.3266   59.0681 H   0  0  0  0  0  0  0  0  0  0  0  0
   31.0778    0.0982   55.3695 H   0  0  0  0  0  0  0  0  0  0  0  0
   28.2351   -2.6422   54.9169 H   0  0  0  0  0  0  0  0  0  0  0  0
   23.8192   -1.6766   56.2748 H   0  0  0  0  0  0  0  0  0  0  0  0
   22.7378   -3.6508   57.3866 H   0  0  0  0  0  0  0  0  0  0  0  0
   19.6663    0.4527   53.7909 H   0  0  0  0  0  0  0  0  0  0  0  0
   33.3164    3.7419   55.7910 H   0  0  0  0  0  0  0  0  0  0  0  0
   32.4996    3.9879   58.1170 H   0  0  0  0  0  0  0  0  0  0  0  0
   32.6130    1.7853   54.4243 H   0  0  0  0  0  0  0  0  0  0  0  0
   19.4870   -1.7021   52.8682 H   0  0  0  0  0  0  0  0  0  0  0  0
   16.3410   -3.2664   55.3800 H   0  0  0  0  0  0  0  0  0  0  0  0
   25.9303    0.9732   55.5490 H   0  0  0  0  0  0  0  0  0  0  0  0
   19.2927    2.8171   52.5265 H   0  0  0  0  0  0  0  0  0  0  0  0
   30.4910   -0.5273   58.6039 H   0  0  0  0  0  0  0  0  0  0  0  0
   29.1841    0.6315   58.5722 H   0  0  0  0  0  0  0  0  0  0  0  0
   18.6851   -3.9024   55.6582 H   0  0  0  0  0  0  0  0  0  0  0  0
   27.9526    0.7754   56.5386 H   0  0  0  0  0  0  0  0  0  0  0  0
   14.9071   -0.1118   51.4876 H   0  0  0  0  0  0  0  0  0  0  0  0
   13.7874   -1.9827   51.4741 C   0  0  0  0  0  0  0  0  0  0  0  0
   14.2080   -2.5210   53.8767 C   0  0  0  0  0  0  0  0  0  0  0  0
   14.0153   -3.5904   53.8671 H   0  0  0  0  0  0  0  0  0  0  0  0
   13.9634   -2.1573   54.8722 H   0  0  0  0  0  0  0  0  0  0  0  0
   13.2829   -1.9221   52.8696 N   0  0  0  0  0  0  0  0  0  0  0  0
   13.9479   -3.0250   51.1911 H   0  0  0  0  0  0  0  0  0  0  0  0
   13.0353   -1.5847   50.7911 H   0  0  0  0  0  0  0  0  0  0  0  0
   17.8057   -0.8319   51.3120 H   0  0  0  0  0  0  0  0  0  0  0  0
   15.5269   -1.3106   50.3723 H   0  0  0  0  0  0  0  0  0  0  0  0
   12.3856   -2.3927   52.9144 H   0  0  0  0  0  0  0  0  0  0  0  0
   13.1341   -0.9417   53.1158 H   0  0  0  0  0  0  0  0  0  0  0  0
  1  2  2  0
  1  6  1  0
  1 39  1  0
  2 23  1  0
  2 40  1  0
  3  9  2  0
  3 17  1  0
  3 41  1  0
  4  9  1  0
  4 18  2  0
  4 42  1  0
  5 20  2  0
  5 24  1  0
  5 66  1  0
  6 10  2  0
  6 43  1  0
  7  8  2  0
  7 11  1  0
  7 44  1  0
  8 30  1  0
  8 45  1  0
  9 29  1  0
 10 22  1  0
 10 36  1  0
 11 26  1  0
 11 31  2  0
 12 23  1  0
 12 26  2  0
 12 32  1  0
 13 30  2  0
 13 31  1  0
 13 35  1  0
 14 28  2  0
 14 33  1  0
 14 46  1  0
 15 29  1  0
 15 36  1  0
 15 37  2  0
 16 17  2  0
 16 18  1  0
 16 47  1  0
 17 48  1  0
 18 49  1  0
 19 21  1  0
 19 24  2  0
 19 60  1  0
 20 25  1  0
 20 50  1  0
 21 25  2  0
 21 51  1  0
 22 23  2  0
 22 52  1  0
 24 34  1  0
 25 35  1  0
 26 33  1  0
 27 32  2  0
 27 33  1  0
 27 38  1  0
 28 38  1  0
 28 53  1  0
 29 54  1  0
 29 55  1  0
 34 58  1  0
 34 59  1  0
 34 67  1  0
 35 56  1  0
 36 57  1  0
 59 63  1  0
 59 64  1  0
 59 65  1  0
 60 61  1  0
 60 62  1  0
 60 63  1  0
 63 68  1  0
 63 69  1  0
M  CHG  1  63   1
M  END
>  <i_epik_Tot_Q>  (5) 
1

>  <i_epik_Tot_abs_Q>  (5) 
1

>  <i_epik_pKa_atom_1>  (5) 
37

>  <i_epik_pKa_atom_2>  (5) 
32

>  <i_epik_pKa_atom_3>  (5) 
30

>  <i_epik_pKa_atom_4>  (5) 
63

>  <i_epik_pKa_atom_5>  (5) 
36

>  <i_epik_pKa_atom_6>  (5) 
35

>  <i_fepmapper_affinity>  (5) 
1

>  <i_fepmapper_unit>  (5) 
1

>  <i_glide_mcs_nalchemical_region>  (5) 
27

>  <i_i_glide_confnum>  (5) 
5

>  <i_i_glide_lignum>  (5) 
1

>  <i_i_glide_posenum>  (5) 
4

>  <i_i_glide_rotatable_bonds>  (5) 
8

>  <i_m_Source_File_Index>  (5) 
10

>  <i_mpc_Hbond_Acceptors>  (5) 
4

>  <i_mpc_Hbond_Donors>  (5) 
4

>  <i_mpc_Rotatable_Bonds>  (5) 
8

>  <b_m_subgroup_collapsed>  (5) 
0

>  <r_epik_Charging_Adjusted_Penalty>  (5) 
0.0451062

>  <r_epik_Ionization_Penalty>  (5) 
0.025

>  <r_epik_Ionization_Penalty_Charging>  (5) 
0.0249

>  <r_epik_Ionization_Penalty_Neutral>  (5) 
0.0001

>  <r_epik_State_Penalty>  (5) 
0.0202

>  <r_epik_pKa_1>  (5) 
1.556

>  <r_epik_pKa_2>  (5) 
2.083

>  <r_epik_pKa_3>  (5) 
3.112

>  <r_epik_pKa_4>  (5) 
8.368

>  <r_epik_pKa_5>  (5) 
13.814

>  <r_epik_pKa_6>  (5) 
15.513

>  <r_fepplus_exp_dg>  (5) 
-11.25

>  <r_glide_mcs_similarity>  (5) 
0.787234

>  <r_glide_shape_similarity>  (5) 
0.884325

>  <r_i_docking_score>  (5) 
-15.979

>  <r_i_glide_ecoul>  (5) 
-15.9906

>  <r_i_glide_eff_state_penalty>  (5) 
0.0202

>  <r_i_glide_einternal>  (5) 
5.78463e-07

>  <r_i_glide_emodel>  (5) 
-175.893

>  <r_i_glide_energy>  (5) 
-89.5317

>  <r_i_glide_erotb>  (5) 
0.454494

>  <r_i_glide_esite>  (5) 
-0.00114321

>  <r_i_glide_evdw>  (5) 
-73.5411

>  <r_i_glide_gscore>  (5) 
-15.9992

>  <r_i_glide_hbond>  (5) 
-0.966933

>  <r_i_glide_ligand_efficiency>  (5) 
-0.389732

>  <r_i_glide_ligand_efficiency_ln>  (5) 
-3.39

>  <r_i_glide_ligand_efficiency_sa>  (5) 
-1.34388

>  <r_i_glide_lipo>  (5) 
-7.27254

>  <r_i_glide_metal>  (5) 
0

>  <r_i_glide_rewards>  (5) 
-2.13743

>  <r_i_glide_rmsd>  (5) 
0.0295511

>  <r_lp_tautomer_probability>  (5) 
1

>  <r_mpc_ALogP>  (5) 
4.3624

>  <r_mpc_Molecular_Weight>  (5) 
558.69

>  <r_mpc_Polar_Surface_Area>  (5) 
129.58

>  <s_epik_pKa_identifier_1>  (5) 
amide O atom

>  <s_epik_pKa_identifier_2>  (5) 
Imidazoliniumthiazole

>  <s_epik_pKa_identifier_3>  (5) 
Pyrimidinium ions, 2-amino

>  <s_epik_pKa_identifier_4>  (5) 
Benzylaminium, ring substituted

>  <s_epik_pKa_identifier_5>  (5) 
Amide, Phenyl Anilinium derivative

>  <s_epik_pKa_identifier_6>  (5) 
Imine Adjacent 2X 6 membered Aromatic Lewis I

>  <s_fep_fragname>  (5) 
none

>  <s_glide_best_reflig>  (5) 
21

>  <s_glide_core_atoms_lig>  (5) 
4 18 16 17 3 9 29 15 37 36 10 6 1 2 23 22 12 32 26 33 27 14 28 38 11 7 8 30 13 31 35 25 20 5 24 19 21

>  <s_glide_core_atoms_ref>  (5) 
3 17 16 18 4 9 29 15 37 36 10 6 1 2 23 22 12 32 26 33 27 14 28 38 11 7 8 30 13 31 35 25 20 5 24 19 21

>  <s_glide_core_constrain_type>  (5) 
snapped_core_restrain

>  <s_glide_core_smarts>  (5) 
c1ccccc1CC(=O)Nc2cccc(c2)-c(n3)c(n(c34)ccs4)-c5ccnc(n5)Nc6ccccc6

>  <s_glide_mcs_list>  (5) 
c1ccccc1CC(=O)Nc2cccc(c2)-c(n3)c(n(c34)ccs4)-c5ccnc(n5)Nc6ccccc6

>  <s_glide_mcs_pose_align_method>  (5) 
snapped_core_restrain

>  <s_glide_mcs_ref_pose_origin>  (5) 
ligand_aligner_snapped_core

>  <s_i_glide_gridfile>  (5) 
glide-grid_1

>  <s_leadoptmap_moltype>  (5) 
ligand

>  <s_m_Source_File>  (5) 
egfr_ligands.sdf

>  <s_m_Source_Path>  (5) 
/cfs/riesbenj/FE_Calculations/openfe_industry_benchmark/IndustryBenchmarks2024/industry_benchmarks/input_structures/prepared_structures/charge_annihilation_set/egfr

>  <s_m_entry_id>  (5) 
80

>  <s_m_entry_name>  (5) 
30charg

>  <s_m_job_name>  (5) 
epik_3

>  <s_m_subgroup_title>  (5) 
egfr_ca->egfr_ligands

>  <s_m_subgroupid>  (5) 
egfr_ca->egfr_ligands

>  <s_mpc_SMILES>  (5) 
c1ccccc1CC(=O)Nc(ccc2)cc2-c(n3)c(n(c34)ccs4)-c5ccnc(n5)Nc(c6)ccc(c67)CC[NH2+]C7

>  <experimental dG reference units>  (5) 
kcal/mol

>  <experimental dG reference field>  (5) 
r_fepplus_exp_dg

>  <kJ/mol experimental dG>  (5) 
-47.07

>  <kcal/mol experimental dG>  (5) 
-11.25

>  <AmberAM1BCCCache>  (5) 
gASVegUAAAAAAABdlCiMFm51bXB5Ll9jb3JlLm11bHRpYXJyYXmUjAZzY2FsYXKUk5SMBW51bXB5lIwFZHR5cGWUk5SMAmY4lImIh5RSlChLA4wBPJROTk5K/////0r/////SwB0lGJDCFVjIvq8HvW/lIaUUpRoA2gJQwjVvRUDibj7v5SGlFKUaANoCUMIfiOsXISq97+UhpRSlGgDaAlDCH4jrFyEqve/lIaUUpRoA2gJQwgW0P7WTMjwv5SGlFKUaANoCUMISscdsvlX+7+UhpRSlGgDaAlDCLfOhTrpbBHAlIaUUpRoA2gJQwiNj1jawbIVQJSGlFKUaANoCUMIjFQBnPuq87+UhpRSlGgDaAlDCMOa79R3Y+s/lIaUUpRoA2gJQwggCGxZ2lobQJSGlFKUaANoCUMIJwhIK+H4FECUhpRSlGgDaAlDCIzjwLb3NCRAlIaUUpRoA2gJQwii6hN37oLqv5SGlFKUaANoCUMIBbH16T6YH0CUhpRSlGgDaAlDCDtChpWycPa/lIaUUpRoA2gJQwg7KDC0PHr3v5SGlFKUaANoCUMIOygwtDx697+UhpRSlGgDaAlDCD7xLG7coPe/lIaUUpRoA2gJQwh032vzYyvwv5SGlFKUaANoCUMI0Xy+T2JQ/r+UhpRSlGgDaAlDCOuqBaWnefy/lIaUUpRoA2gJQwg+XNx2KGf1v5SGlFKUaANoCUMIbf+4dAUQ97+UhpRSlGgDaAlDCMBMHJOOFwJAlIaUUpRoA2gJQwhhP3UqPGQMwJSGlFKUaANoCUMILidIQ7q2EkCUhpRSlGgDaAlDCHVdKNlM+wDAlIaUUpRoA2gJQwgwAeZISfP0v5SGlFKUaANoCUMINZRM7BylIcCUhpRSlGgDaAlDCPTQITBOxiHAlIaUUpRoA2gJQwiUO4Z8g2sdwJSGlFKUaANoCUMIHt3yYMpY9L+UhpRSlGgDaAlDCG0dloqpZuS/lIaUUpRoA2gJQwhcfzOx3/EgwJSGlFKUaANoCUMI6dewo/EpFsCUhpRSlGgDaAlDCIBGlSCN9hvAlIaUUpRoA2gJQwiMIx/+pLzSP5SGlFKUaANoCUMIRAN15vXW+T+UhpRSlGgDaAlDCLkMfZVmdvk/lIaUUpRoA2gJQwhaCrtpio75P5SGlFKUaANoCUMIWgq7aYqO+T+UhpRSlGgDaAlDCLEgKPE3yQBAlIaUUpRoA2gJQwgmENq+MnIBQJSGlFKUaANoCUMI9aBtckQS3j+UhpRSlGgDaAlDCLtpyfd4+gJAlIaUUpRoA2gJQwjP+Ww3hTf6P5SGlFKUaANoCUMILvwuY2Ef+j+UhpRSlGgDaAlDCC78LmNhH/o/lIaUUpRoA2gJQwjUlxBNviMBQJSGlFKUaANoCUMIKeLYgeso+z+UhpRSlGgDaAlDCGNTXHDLv/s/lIaUUpRoA2gJQwiY/4uMLRsCQJSGlFKUaANoCUMIlB/7wMKK8D+UhpRSlGgDaAlDCJQf+8DCivA/lIaUUpRoA2gJQwjbx8+l5fsUQJSGlFKUaANoCUMI4byZN0j6DkCUhpRSlGgDaAlDCJ6C8qh5svE/lIaUUpRoA2gJQwjzS17bBub0P5SGlFKUaANoCUMILADYSoMKAECUhpRSlGgDaAlDCAPBqupbUPQ/lIaUUpRoA2gJQwgDwarqW1D0P5SGlFKUaANoCUMIZ81+7oPqIcCUhpRSlGgDaAlDCFRGH00LGvQ/lIaUUpRoA2gJQwhURh9NCxr0P5SGlFKUaANoCUMIJq4sv/87/T+UhpRSlGgDaAlDCJ6C8qh5svE/lIaUUpRoA2gJQwihPPbVj24VQJSGlFKUaANoCUMIoTz21Y9uFUCUhpRSlGUu

$$$$
