2d pose 2
     RDKit          3D

 54 56  0  0  1  0  0  0  0  0999 V2000
   16.3900  -15.7830   23.1600 N   0  0  0  0  0  0  0  0  0  0  0  0
   17.6570  -15.0120   23.1460 C   0  0  1  0  0  0  0  0  0  0  0  0
   17.4360  -13.6310   22.5680 C   0  0  0  0  0  0  0  0  0  0  0  0
   16.5060  -12.9450   23.0320 O   0  0  0  0  0  0  0  0  0  0  0  0
   18.1720  -14.9170   24.5950 C   0  0  0  0  0  0  0  0  0  0  0  0
   19.5920  -14.3710   24.7440 C   0  0  0  0  0  0  0  0  0  0  0  0
   20.6910  -14.9640   24.0890 C   0  0  0  0  0  0  0  0  0  0  0  0
   19.8220  -13.2490   25.5510 C   0  0  0  0  0  0  0  0  0  0  0  0
   21.9860  -14.4540   24.2350 C   0  0  0  0  0  0  0  0  0  0  0  0
   21.1010  -12.7410   25.6970 C   0  0  0  0  0  0  0  0  0  0  0  0
   22.1890  -13.3330   25.0460 C   0  0  0  0  0  0  0  0  0  0  0  0
   18.2450  -13.1710   21.5890 N   0  0  0  0  0  0  0  0  0  0  0  0
   18.0280  -11.8220   21.0620 C   0  0  2  0  0  0  0  0  0  0  0  0
   16.5844  -11.6366   20.4920 C   0  0  0  0  0  0  0  0  0  0  0  0
   16.0936  -12.5326   19.7974 O   0  0  0  0  0  0  0  0  0  0  0  0
   18.9440  -11.8950   19.8030 C   0  0  0  0  0  0  0  0  0  0  0  0
   20.1040  -12.7670   20.3170 C   0  0  0  0  0  0  0  0  0  0  0  0
   19.3760  -13.9390   21.0230 C   0  0  0  0  0  0  0  0  0  0  0  0
   15.9216  -10.5167   20.7857 N   0  0  0  0  0  0  0  0  0  0  0  0
   14.5421  -10.2284   20.3862 C   0  0  0  0  0  0  0  0  0  0  0  0
   13.5006  -10.4150   21.4755 C   0  0  0  0  0  0  0  0  0  0  0  0
   13.2723   -9.3731   22.3762 C   0  0  0  0  0  0  0  0  0  0  0  0
   12.2471   -9.4550   23.3107 C   0  0  0  0  0  0  0  0  0  0  0  0
   11.4189  -10.5766   23.3417 C   0  0  0  0  0  0  0  0  0  0  0  0
   11.6435  -11.6276   22.4488 C   0  0  0  0  0  0  0  0  0  0  0  0
   12.6814  -11.5488   21.5160 C   0  0  0  0  0  0  0  0  0  0  0  0
   13.8938   -8.4908   22.3557 H   0  0  0  0  0  0  0  0  0  0  0  0
   12.1176   -8.6400   24.0074 H   0  0  0  0  0  0  0  0  0  0  0  0
   10.6057  -10.6321   24.0554 H   0  0  0  0  0  0  0  0  0  0  0  0
   10.7422  -12.8508   22.4902 N   0  0  0  0  0  0  0  0  0  0  0  0
   12.8349  -12.3578   20.8172 H   0  0  0  0  0  0  0  0  0  0  0  0
   19.0085  -12.7762   26.0700 H   0  0  0  0  0  0  0  0  0  0  0  0
   21.2507  -11.8699   26.3204 H   0  0  0  0  0  0  0  0  0  0  0  0
   22.8194  -14.9222   23.7310 H   0  0  0  0  0  0  0  0  0  0  0  0
   23.1826  -12.9251   25.1656 H   0  0  0  0  0  0  0  0  0  0  0  0
   20.5480  -15.8425   23.4754 H   0  0  0  0  0  0  0  0  0  0  0  0
   16.4851  -16.6309   23.6946 H   0  0  0  0  0  0  0  0  0  0  0  0
   15.6579  -15.2082   23.5761 H   0  0  0  0  0  0  0  0  0  0  0  0
   16.1023  -16.0218   22.2238 H   0  0  0  0  0  0  0  0  0  0  0  0
   18.3189  -15.6340   22.5429 H   0  0  0  0  0  0  0  0  0  0  0  0
   18.2020  -15.9089   25.0514 H   0  0  0  0  0  0  0  0  0  0  0  0
   17.4891  -14.3361   25.2215 H   0  0  0  0  0  0  0  0  0  0  0  0
   18.3314  -11.0523   21.7729 H   0  0  0  0  0  0  0  0  0  0  0  0
   19.2928  -10.9088   19.5155 H   0  0  0  0  0  0  0  0  0  0  0  0
   18.4736  -12.3581   18.9346 H   0  0  0  0  0  0  0  0  0  0  0  0
   20.7135  -12.2134   21.0336 H   0  0  0  0  0  0  0  0  0  0  0  0
   20.7607  -13.1043   19.5153 H   0  0  0  0  0  0  0  0  0  0  0  0
   19.0086  -14.6805   20.3159 H   0  0  0  0  0  0  0  0  0  0  0  0
   20.0380  -14.4130   21.7362 H   0  0  0  0  0  0  0  0  0  0  0  0
   16.3977   -9.8156   21.3583 H   0  0  0  0  0  0  0  0  0  0  0  0
   14.2419  -10.7792   19.4905 H   0  0  0  0  0  0  0  0  0  0  0  0
   14.4837   -9.1753   20.1263 H   0  0  0  0  0  0  0  0  0  0  0  0
   10.8979  -13.6148   21.8482 H   0  0  0  0  0  0  0  0  0  0  0  0
    9.9876  -12.8996   23.1597 H   0  0  0  0  0  0  0  0  0  0  0  0
  1  2  1  0
  1 37  1  0
  1 38  1  0
  1 39  1  0
  2  3  1  0
  2  5  1  0
  2 40  1  6
  3  4  2  0
  3 12  1  0
  5  6  1  0
  5 41  1  0
  5 42  1  0
  6  7  2  0
  6  8  1  0
  7  9  1  0
  7 36  1  0
  8 10  2  0
  8 32  1  0
  9 11  2  0
  9 34  1  0
 10 11  1  0
 10 33  1  0
 11 35  1  0
 12 13  1  0
 12 18  1  0
 13 14  1  0
 13 16  1  0
 13 43  1  1
 14 15  2  0
 14 19  1  0
 16 17  1  0
 16 44  1  0
 16 45  1  0
 17 18  1  0
 17 46  1  0
 17 47  1  0
 18 48  1  0
 18 49  1  0
 19 20  1  0
 19 50  1  0
 20 21  1  0
 20 51  1  0
 20 52  1  0
 21 22  2  0
 21 26  1  0
 22 23  1  0
 22 27  1  0
 23 24  2  0
 23 28  1  0
 24 25  1  0
 24 29  1  0
 25 26  2  0
 25 30  1  0
 26 31  1  0
 30 53  1  0
 30 54  1  0
M  CHG  1   1   1
M  END
>  <r_exp_dg>  (1) 
-6.63087

>  <experimental dG reference units>  (1) 
kcal/mol

>  <experimental dG reference field>  (1) 
r_exp_dg

>  <kJ/mol experimental dG>  (1) 
-27.74356008

>  <kcal/mol experimental dG>  (1) 
-6.63087

>  <AmberAM1BCCCache>  (1) 
gASVXQQAAAAAAABdlCiMFm51bXB5Ll9jb3JlLm11bHRpYXJyYXmUjAZzY2FsYXKUk5SMBW51bXB5lIwFZHR5cGWUk5SMAmY4lImIh5RSlChLA4wBPJROTk5K/////0r/////SwB0lGJDCLUWlYPiviPAlIaUUpRoA2gJQwhknCpxLU/fP5SGlFKUaANoCUMIfOy4ScfyHkCUhpRSlGgDaAlDCHMxPjsdCRnAlIaUUpRoA2gJQwi4Tt7jXvjkv5SGlFKUaANoCUMIZphw5m5w/L+UhpRSlGgDaAlDCDoP6skHvvm/lIaUUpRoA2gJQwg6D+rJB775v5SGlFKUaANoCUMIK32nvIVb9b+UhpRSlGgDaAlDCCt9p7yFW/W/lIaUUpRoA2gJQwi4tPbAOyTzv5SGlFKUaANoCUMIPVJrJzqqFMCUhpRSlGgDaAlDCGXnQ1+VG9I/lIaUUpRoA2gJQwhApY2wDLoeQJSGlFKUaANoCUMI2LDZh4wmIMCUhpRSlGgDaAlDCO32LopQgPC/lIaUUpRoA2gJQwj31/YyS9Xvv5SGlFKUaANoCUMIHBaMKBAa7D+UhpRSlGgDaAlDCKnmb2CY9BjAlIaUUpRoA2gJQwhoZKGgKMj4P5SGlFKUaANoCUMIEVlrO8Sr8L+UhpRSlGgDaAlDCB7n7deRNQDAlIaUUpRoA2gJQwiv3HqKA6Xvv5SGlFKUaANoCUMI7Mu24C1LAcCUhpRSlGgDaAlDCGGRmRIFKP8/lIaUUpRoA2gJQwi+vSraBNwBwJSGlFKUaANoCUMIaGShoCjI+D+UhpRSlGgDaAlDCFQMAva9QPo/lIaUUpRoA2gJQwgCZTb4wMz6P5SGlFKUaANoCUMIX1nPNLqjI8CUhpRSlGgDaAlDCJRY18XbQPk/lIaUUpRoA2gJQwif6tA5G475P5SGlFKUaANoCUMIQSwG3hwQ/T+UhpRSlGgDaAlDCEEsBt4cEP0/lIaUUpRoA2gJQwjzhDrgH5z9P5SGlFKUaANoCUMIn+rQORuO+T+UhpRSlGgDaAlDCPObDXdcChZAlIaUUpRoA2gJQwjzmw13XAoWQJSGlFKUaANoCUMI85sNd1wKFkCUhpRSlGgDaAlDCG1H9Ds+5fc/lIaUUpRoA2gJQwiCCkPv9DL0P5SGlFKUaANoCUMIggpD7/Qy9D+UhpRSlGgDaAlDCPX59Lzv2/Q/lIaUUpRoA2gJQwjdybZY8hntP5SGlFKUaANoCUMI3cm2WPIZ7T+UhpRSlGgDaAlDCJyxjUvABuw/lIaUUpRoA2gJQwicsY1LwAbsP5SGlFKUaANoCUMIu/KcR1Tz3z+UhpRSlGgDaAlDCLvynEdU898/lIaUUpRoA2gJQwipgIoeD7QOQJSGlFKUaANoCUMIo5Tg5tUj6z+UhpRSlGgDaAlDCKOU4ObVI+s/lIaUUpRoA2gJQwjjejSwdCQTQJSGlFKUaANoCUMI43o0sHQkE0CUhpRSlGUu

$$$$
2c pose 2
     RDKit          3D

 53 55  0  0  1  0  0  0  0  0999 V2000
   16.3900  -15.7830   23.1600 N   0  0  0  0  0  0  0  0  0  0  0  0
   17.6570  -15.0120   23.1460 C   0  0  1  0  0  0  0  0  0  0  0  0
   17.4360  -13.6310   22.5680 C   0  0  0  0  0  0  0  0  0  0  0  0
   16.5060  -12.9450   23.0320 O   0  0  0  0  0  0  0  0  0  0  0  0
   18.1720  -14.9170   24.5950 C   0  0  0  0  0  0  0  0  0  0  0  0
   19.5920  -14.3710   24.7440 C   0  0  0  0  0  0  0  0  0  0  0  0
   20.6910  -14.9640   24.0890 C   0  0  0  0  0  0  0  0  0  0  0  0
   19.8220  -13.2490   25.5510 C   0  0  0  0  0  0  0  0  0  0  0  0
   21.9860  -14.4540   24.2350 C   0  0  0  0  0  0  0  0  0  0  0  0
   21.1010  -12.7410   25.6970 C   0  0  0  0  0  0  0  0  0  0  0  0
   22.1890  -13.3330   25.0460 C   0  0  0  0  0  0  0  0  0  0  0  0
   18.2450  -13.1710   21.5890 N   0  0  0  0  0  0  0  0  0  0  0  0
   18.0280  -11.8220   21.0620 C   0  0  2  0  0  0  0  0  0  0  0  0
   16.5844  -11.6366   20.4920 C   0  0  0  0  0  0  0  0  0  0  0  0
   16.0936  -12.5326   19.7974 O   0  0  0  0  0  0  0  0  0  0  0  0
   18.9440  -11.8950   19.8030 C   0  0  0  0  0  0  0  0  0  0  0  0
   20.1040  -12.7670   20.3170 C   0  0  0  0  0  0  0  0  0  0  0  0
   19.3760  -13.9390   21.0230 C   0  0  0  0  0  0  0  0  0  0  0  0
   15.9216  -10.5167   20.7857 N   0  0  0  0  0  0  0  0  0  0  0  0
   14.5421  -10.2284   20.3862 C   0  0  0  0  0  0  0  0  0  0  0  0
   13.5006  -10.4150   21.4755 C   0  0  0  0  0  0  0  0  0  0  0  0
   13.2723   -9.3731   22.3762 C   0  0  0  0  0  0  0  0  0  0  0  0
   12.2471   -9.4550   23.3107 C   0  0  0  0  0  0  0  0  0  0  0  0
   11.4189  -10.5766   23.3417 C   0  0  0  0  0  0  0  0  0  0  0  0
   11.6435  -11.6276   22.4488 C   0  0  0  0  0  0  0  0  0  0  0  0
   12.6814  -11.5488   21.5160 C   0  0  0  0  0  0  0  0  0  0  0  0
   13.8938   -8.4908   22.3557 H   0  0  0  0  0  0  0  0  0  0  0  0
   12.1176   -8.6400   24.0074 H   0  0  0  0  0  0  0  0  0  0  0  0
   10.6057  -10.6321   24.0554 H   0  0  0  0  0  0  0  0  0  0  0  0
   10.8347  -12.7253   22.4859 O   0  0  0  0  0  0  0  0  0  0  0  0
   12.8349  -12.3578   20.8172 H   0  0  0  0  0  0  0  0  0  0  0  0
   19.0085  -12.7762   26.0700 H   0  0  0  0  0  0  0  0  0  0  0  0
   21.2507  -11.8699   26.3204 H   0  0  0  0  0  0  0  0  0  0  0  0
   22.8194  -14.9222   23.7310 H   0  0  0  0  0  0  0  0  0  0  0  0
   23.1826  -12.9251   25.1656 H   0  0  0  0  0  0  0  0  0  0  0  0
   20.5480  -15.8425   23.4754 H   0  0  0  0  0  0  0  0  0  0  0  0
   16.4851  -16.6309   23.6946 H   0  0  0  0  0  0  0  0  0  0  0  0
   15.6579  -15.2082   23.5761 H   0  0  0  0  0  0  0  0  0  0  0  0
   16.1023  -16.0218   22.2238 H   0  0  0  0  0  0  0  0  0  0  0  0
   18.3189  -15.6340   22.5429 H   0  0  0  0  0  0  0  0  0  0  0  0
   18.2020  -15.9089   25.0514 H   0  0  0  0  0  0  0  0  0  0  0  0
   17.4891  -14.3361   25.2215 H   0  0  0  0  0  0  0  0  0  0  0  0
   18.3314  -11.0523   21.7729 H   0  0  0  0  0  0  0  0  0  0  0  0
   19.2928  -10.9088   19.5155 H   0  0  0  0  0  0  0  0  0  0  0  0
   18.4736  -12.3581   18.9346 H   0  0  0  0  0  0  0  0  0  0  0  0
   20.7135  -12.2134   21.0336 H   0  0  0  0  0  0  0  0  0  0  0  0
   20.7607  -13.1043   19.5153 H   0  0  0  0  0  0  0  0  0  0  0  0
   19.0086  -14.6805   20.3159 H   0  0  0  0  0  0  0  0  0  0  0  0
   20.0380  -14.4130   21.7362 H   0  0  0  0  0  0  0  0  0  0  0  0
   16.3977   -9.8156   21.3583 H   0  0  0  0  0  0  0  0  0  0  0  0
   14.2419  -10.7792   19.4905 H   0  0  0  0  0  0  0  0  0  0  0  0
   14.4837   -9.1753   20.1263 H   0  0  0  0  0  0  0  0  0  0  0  0
   11.1156  -13.3531   21.8162 H   0  0  0  0  0  0  0  0  0  0  0  0
  1  2  1  0
  1 37  1  0
  1 38  1  0
  1 39  1  0
  2  3  1  0
  2  5  1  0
  2 40  1  6
  3  4  2  0
  3 12  1  0
  5  6  1  0
  5 41  1  0
  5 42  1  0
  6  7  2  0
  6  8  1  0
  7  9  1  0
  7 36  1  0
  8 10  2  0
  8 32  1  0
  9 11  2  0
  9 34  1  0
 10 11  1  0
 10 33  1  0
 11 35  1  0
 12 13  1  0
 12 18  1  0
 13 14  1  0
 13 16  1  0
 13 43  1  1
 14 15  2  0
 14 19  1  0
 16 17  1  0
 16 44  1  0
 16 45  1  0
 17 18  1  0
 17 46  1  0
 17 47  1  0
 18 48  1  0
 18 49  1  0
 19 20  1  0
 19 50  1  0
 20 21  1  0
 20 51  1  0
 20 52  1  0
 21 22  2  0
 21 26  1  0
 22 23  1  0
 22 27  1  0
 23 24  2  0
 23 28  1  0
 24 25  1  0
 24 29  1  0
 25 26  2  0
 25 30  1  0
 26 31  1  0
 30 53  1  0
M  CHG  1   1   1
M  END
>  <r_exp_dg>  (2) 
-7.28564

>  <experimental dG reference units>  (2) 
kcal/mol

>  <experimental dG reference field>  (2) 
r_exp_dg

>  <kJ/mol experimental dG>  (2) 
-30.483117760000003

>  <kcal/mol experimental dG>  (2) 
-7.28564

>  <AmberAM1BCCCache>  (2) 
gASVSgQAAAAAAABdlCiMFm51bXB5Ll9jb3JlLm11bHRpYXJyYXmUjAZzY2FsYXKUk5SMBW51bXB5lIwFZHR5cGWUk5SMAmY4lImIh5RSlChLA4wBPJROTk5K/////0r/////SwB0lGJDCBB0fpkzsyPAlIaUUpRoA2gJQwiTnPJBBP3gP5SGlFKUaANoCUMIVP6FGY8MH0CUhpRSlGgDaAlDCPNgN5dpZBnAlIaUUpRoA2gJQwht7XD8D2Tkv5SGlFKUaANoCUMID3Uvj86j/L+UhpRSlGgDaAlDCFf1sCHYkPm/lIaUUpRoA2gJQwhX9bAh2JD5v5SGlFKUaANoCUMIoI+IlVd09b+UhpRSlGgDaAlDCKCPiJVXdPW/lIaUUpRoA2gJQwi6ynrb1xjzv5SGlFKUaANoCUMIBD7cK5aoFMCUhpRSlGgDaAlDCPupHi4zRNM/lIaUUpRoA2gJQwic5FUXxA0fQJSGlFKUaANoCUMIGRwpxVuSIMCUhpRSlGgDaAlDCFhqa/6n0PC/lIaUUpRoA2gJQwjlerkwrSfwv5SGlFKUaANoCUMI9zbuGo417T+UhpRSlGgDaAlDCCoOaAINnBjAlIaUUpRoA2gJQwjWjih7XUz4P5SGlFKUaANoCUMItAF+ITjy8r+UhpRSlGgDaAlDCJm8gAc01Pu/lIaUUpRoA2gJQwiwCIO/O47vv5SGlFKUaANoCUMIXfACEZxMAsCUhpRSlGgDaAlDCKTR9ZsKrfc/lIaUUpRoA2gJQwhjy6Fl9Uf9v5SGlFKUaANoCUMI1yN5chGG+j+UhpRSlGgDaAlDCBoFnznjv/s/lIaUUpRoA2gJQwjw2WXOz237P5SGlFKUaANoCUMIXPKbsxCtF8CUhpRSlGgDaAlDCN6bHAXb3Ps/lIaUUpRoA2gJQwh9Ow0oq5T5P5SGlFKUaANoCUMIT34j4poK/T+UhpRSlGgDaAlDCE9+I+KaCv0/lIaUUpRoA2gJQwiRo/ffB5n9P5SGlFKUaANoCUMIfTsNKKuU+T+UhpRSlGgDaAlDCA+NIA1xNRZAlIaUUpRoA2gJQwgPjSANcTUWQJSGlFKUaANoCUMID40gDXE1FkCUhpRSlGgDaAlDCGLwz9Q4c/Y/lIaUUpRoA2gJQwj6024upH/zP5SGlFKUaANoCUMI+tNuLqR/8z+UhpRSlGgDaAlDCKgFol72mfU/lIaUUpRoA2gJQwjs2/fsrsHsP5SGlFKUaANoCUMI7Nv37K7B7D+UhpRSlGgDaAlDCCR8fWcXfuw/lIaUUpRoA2gJQwgkfH1nF37sP5SGlFKUaANoCUMIVxkaLIYj4j+UhpRSlGgDaAlDCFcZGiyGI+I/lIaUUpRoA2gJQwjyRmxk44sOQJSGlFKUaANoCUMIz/FezgTt7T+UhpRSlGgDaAlDCM/xXs4E7e0/lIaUUpRoA2gJQwg5Dq3BdjQUQJSGlFKUZS4=

$$$$
7b
     RDKit          3D

 52 54  0  0  1  0  0  0  0  0999 V2000
   16.3900  -15.7830   23.1600 N   0  0  0  0  0  0  0  0  0  0  0  0
   17.6570  -15.0120   23.1460 C   0  0  1  0  0  0  0  0  0  0  0  0
   17.4360  -13.6310   22.5680 C   0  0  0  0  0  0  0  0  0  0  0  0
   16.5060  -12.9450   23.0320 O   0  0  0  0  0  0  0  0  0  0  0  0
   18.1720  -14.9170   24.5950 C   0  0  0  0  0  0  0  0  0  0  0  0
   19.5920  -14.3710   24.7440 C   0  0  0  0  0  0  0  0  0  0  0  0
   20.6910  -14.9640   24.0890 C   0  0  0  0  0  0  0  0  0  0  0  0
   19.8220  -13.2490   25.5510 C   0  0  0  0  0  0  0  0  0  0  0  0
   21.9860  -14.4540   24.2350 C   0  0  0  0  0  0  0  0  0  0  0  0
   21.1010  -12.7410   25.6970 C   0  0  0  0  0  0  0  0  0  0  0  0
   22.1890  -13.3330   25.0460 C   0  0  0  0  0  0  0  0  0  0  0  0
   18.2450  -13.1710   21.5890 N   0  0  0  0  0  0  0  0  0  0  0  0
   18.0280  -11.8220   21.0620 C   0  0  2  0  0  0  0  0  0  0  0  0
   16.5810  -11.6382   20.4904 C   0  0  0  0  0  0  0  0  0  0  0  0
   16.1156  -12.5162   19.7566 O   0  0  0  0  0  0  0  0  0  0  0  0
   18.9440  -11.8950   19.8030 C   0  0  0  0  0  0  0  0  0  0  0  0
   20.1040  -12.7670   20.3170 C   0  0  0  0  0  0  0  0  0  0  0  0
   19.3760  -13.9390   21.0230 C   0  0  0  0  0  0  0  0  0  0  0  0
   15.8847  -10.5489   20.8284 N   0  0  0  0  0  0  0  0  0  0  0  0
   14.4957  -10.2731   20.4380 C   0  0  0  0  0  0  0  0  0  0  0  0
   13.4605  -10.3645   21.5591 C   0  0  0  0  0  0  0  0  0  0  0  0
   13.3169   -9.2616   22.4088 C   0  0  0  0  0  0  0  0  0  0  0  0
   12.3354   -9.2310   23.3983 C   0  0  0  0  0  0  0  0  0  0  0  0
   11.4452  -10.2981   23.5103 C   0  0  0  0  0  0  0  0  0  0  0  0
   11.5715  -11.4037   22.6691 C   0  0  0  0  0  0  0  0  0  0  0  0
   12.5800  -11.4542   21.7000 C   0  0  0  0  0  0  0  0  0  0  0  0
   13.9947   -8.4274   22.3114 H   0  0  0  0  0  0  0  0  0  0  0  0
   12.2932   -8.4072   24.0954 H   0  0  0  0  0  0  0  0  0  0  0  0
   10.1952  -10.2741   24.7061 Cl  0  0  0  0  0  0  0  0  0  0  0  0
   10.8782  -12.2261   22.7847 H   0  0  0  0  0  0  0  0  0  0  0  0
   12.6611  -12.3349   21.0803 H   0  0  0  0  0  0  0  0  0  0  0  0
   19.0085  -12.7761   26.0699 H   0  0  0  0  0  0  0  0  0  0  0  0
   21.2508  -11.8700   26.3204 H   0  0  0  0  0  0  0  0  0  0  0  0
   22.8194  -14.9221   23.7310 H   0  0  0  0  0  0  0  0  0  0  0  0
   23.1826  -12.9251   25.1656 H   0  0  0  0  0  0  0  0  0  0  0  0
   20.5481  -15.8425   23.4754 H   0  0  0  0  0  0  0  0  0  0  0  0
   16.1032  -16.0234   22.2240 H   0  0  0  0  0  0  0  0  0  0  0  0
   15.6580  -15.2072   23.5752 H   0  0  0  0  0  0  0  0  0  0  0  0
   16.4848  -16.6299   23.6962 H   0  0  0  0  0  0  0  0  0  0  0  0
   18.3188  -15.6341   22.5428 H   0  0  0  0  0  0  0  0  0  0  0  0
   18.2019  -15.9088   25.0516 H   0  0  0  0  0  0  0  0  0  0  0  0
   17.4891  -14.3359   25.2212 H   0  0  0  0  0  0  0  0  0  0  0  0
   18.3304  -11.0518   21.7727 H   0  0  0  0  0  0  0  0  0  0  0  0
   19.2934  -10.9089   19.5162 H   0  0  0  0  0  0  0  0  0  0  0  0
   18.4769  -12.3582   18.9331 H   0  0  0  0  0  0  0  0  0  0  0  0
   20.7134  -12.2135   21.0337 H   0  0  0  0  0  0  0  0  0  0  0  0
   20.7606  -13.1043   19.5152 H   0  0  0  0  0  0  0  0  0  0  0  0
   19.0083  -14.6804   20.3159 H   0  0  0  0  0  0  0  0  0  0  0  0
   20.0379  -14.4132   21.7362 H   0  0  0  0  0  0  0  0  0  0  0  0
   16.3459   -9.8513   21.4168 H   0  0  0  0  0  0  0  0  0  0  0  0
   14.1803  -10.8634   19.5755 H   0  0  0  0  0  0  0  0  0  0  0  0
   14.4493   -9.2409   20.1036 H   0  0  0  0  0  0  0  0  0  0  0  0
  1  2  1  0
  1 37  1  0
  1 38  1  0
  1 39  1  0
  2  3  1  0
  2  5  1  0
  2 40  1  6
  3  4  2  0
  3 12  1  0
  5  6  1  0
  5 41  1  0
  5 42  1  0
  6  7  2  0
  6  8  1  0
  7  9  1  0
  7 36  1  0
  8 10  2  0
  8 32  1  0
  9 11  2  0
  9 34  1  0
 10 11  1  0
 10 33  1  0
 11 35  1  0
 12 13  1  0
 12 18  1  0
 13 14  1  0
 13 16  1  0
 13 43  1  1
 14 15  2  0
 14 19  1  0
 16 17  1  0
 16 44  1  0
 16 45  1  0
 17 18  1  0
 17 46  1  0
 17 47  1  0
 18 48  1  0
 18 49  1  0
 19 20  1  0
 19 50  1  0
 20 21  1  0
 20 51  1  0
 20 52  1  0
 21 22  2  0
 21 26  1  0
 22 23  1  0
 22 27  1  0
 23 24  2  0
 23 28  1  0
 24 25  1  0
 24 29  1  0
 25 26  2  0
 25 30  1  0
 26 31  1  0
M  CHG  1   1   1
M  END
>  <r_exp_dg>  (3) 
-7.4093

>  <experimental dG reference units>  (3) 
kcal/mol

>  <experimental dG reference field>  (3) 
r_exp_dg

>  <kJ/mol experimental dG>  (3) 
-31.000511200000002

>  <kcal/mol experimental dG>  (3) 
-7.4093

>  <AmberAM1BCCCache>  (3) 
gASVNwQAAAAAAABdlCiMFm51bXB5Ll9jb3JlLm11bHRpYXJyYXmUjAZzY2FsYXKUk5SMBW51bXB5lIwFZHR5cGWUk5SMAmY4lImIh5RSlChLA4wBPJROTk5K/////0r/////SwB0lGJDCJK7SGncyiPAlIaUUpRoA2gJQwh7TPYydsvaP5SGlFKUaANoCUMIR/KjsBC/HkCUhpRSlGgDaAlDCGB0hWInYRjAlIaUUpRoA2gJQwg7oZyWtYflv5SGlFKUaANoCUMIHsvX7opX/L+UhpRSlGgDaAlDCNY6C0+P7fm/lIaUUpRoA2gJQwjWOgtPj+35v5SGlFKUaANoCUMIbbOxBmwe9b+UhpRSlGgDaAlDCG2zsQZsHvW/lIaUUpRoA2gJQwi14tlxnzvzv5SGlFKUaANoCUMI0hc/pmzsFMCUhpRSlGgDaAlDCE4e1BFpYtA/lIaUUpRoA2gJQwhd+ekzpXYeQJSGlFKUaANoCUMIVeUrC58VHsCUhpRSlGgDaAlDCCaOlG+8evC/lIaUUpRoA2gJQwiUS1FKrBLvv5SGlFKUaANoCUMIDc3VJCoq6z+UhpRSlGgDaAlDCCyQUbEjUBnAlIaUUpRoA2gJQwhjpMR7hWP4P5SGlFKUaANoCUMIgBucvsgi+b+UhpRSlGgDaAlDCJzBPQ2VjfS/lIaUUpRoA2gJQwhofwVEgDH3v5SGlFKUaANoCUMIYWxo6E9w1T+UhpRSlGgDaAlDCGh/BUSAMfe/lIaUUpRoA2gJQwicwT0NlY30v5SGlFKUaANoCUMIuandKtY3+j+UhpRSlGgDaAlDCLNb24Z0VP0/lIaUUpRoA2gJQwgPvbF+9Ivqv5SGlFKUaANoCUMIs1vbhnRU/T+UhpRSlGgDaAlDCLmp3SrWN/o/lIaUUpRoA2gJQwgCv6+0k175P5SGlFKUaANoCUMIb2Bf3iwk/T+UhpRSlGgDaAlDCG9gX94sJP0/lIaUUpRoA2gJQwibVJUD4Jz9P5SGlFKUaANoCUMIAr+vtJNe+T+UhpRSlGgDaAlDCAsgM/QlxhVAlIaUUpRoA2gJQwgLIDP0JcYVQJSGlFKUaANoCUMICyAz9CXGFUCUhpRSlGgDaAlDCCXQkj4xuvo/lIaUUpRoA2gJQwgBXguAyxH1P5SGlFKUaANoCUMIAV4LgMsR9T+UhpRSlGgDaAlDCDFsl4b0gPQ/lIaUUpRoA2gJQwgZ9B+QHbHtP5SGlFKUaANoCUMIGfQfkB2x7T+UhpRSlGgDaAlDCO0ZQEzgLuw/lIaUUpRoA2gJQwjtGUBM4C7sP5SGlFKUaANoCUMI4TEL+mfQ2T+UhpRSlGgDaAlDCOExC/pn0Nk/lIaUUpRoA2gJQwjVLqiS5vANQJSGlFKUaANoCUMIo+oX4awR7j+UhpRSlGgDaAlDCKPqF+GsEe4/lIaUUpRlLg==

$$$$
7c pose 1
     RDKit          3D

 52 54  0  0  1  0  0  0  0  0999 V2000
   16.3900  -15.7830   23.1600 N   0  0  0  0  0  0  0  0  0  0  0  0
   17.6570  -15.0120   23.1460 C   0  0  1  0  0  0  0  0  0  0  0  0
   17.4360  -13.6310   22.5680 C   0  0  0  0  0  0  0  0  0  0  0  0
   16.5060  -12.9450   23.0320 O   0  0  0  0  0  0  0  0  0  0  0  0
   18.1720  -14.9170   24.5950 C   0  0  0  0  0  0  0  0  0  0  0  0
   19.5920  -14.3710   24.7440 C   0  0  0  0  0  0  0  0  0  0  0  0
   20.6910  -14.9640   24.0890 C   0  0  0  0  0  0  0  0  0  0  0  0
   19.8220  -13.2490   25.5510 C   0  0  0  0  0  0  0  0  0  0  0  0
   21.9860  -14.4540   24.2350 C   0  0  0  0  0  0  0  0  0  0  0  0
   21.1010  -12.7410   25.6970 C   0  0  0  0  0  0  0  0  0  0  0  0
   22.1890  -13.3330   25.0460 C   0  0  0  0  0  0  0  0  0  0  0  0
   18.2450  -13.1710   21.5890 N   0  0  0  0  0  0  0  0  0  0  0  0
   18.0280  -11.8220   21.0620 C   0  0  2  0  0  0  0  0  0  0  0  0
   16.5810  -11.6382   20.4904 C   0  0  0  0  0  0  0  0  0  0  0  0
   16.1156  -12.5162   19.7566 O   0  0  0  0  0  0  0  0  0  0  0  0
   18.9440  -11.8950   19.8030 C   0  0  0  0  0  0  0  0  0  0  0  0
   20.1040  -12.7670   20.3170 C   0  0  0  0  0  0  0  0  0  0  0  0
   19.3760  -13.9390   21.0230 C   0  0  0  0  0  0  0  0  0  0  0  0
   15.8847  -10.5489   20.8284 N   0  0  0  0  0  0  0  0  0  0  0  0
   14.4957  -10.2731   20.4380 C   0  0  0  0  0  0  0  0  0  0  0  0
   13.4605  -10.3645   21.5591 C   0  0  0  0  0  0  0  0  0  0  0  0
   13.3169   -9.2616   22.4088 C   0  0  0  0  0  0  0  0  0  0  0  0
   12.3354   -9.2310   23.3983 C   0  0  0  0  0  0  0  0  0  0  0  0
   11.4452  -10.2981   23.5103 C   0  0  0  0  0  0  0  0  0  0  0  0
   11.5715  -11.4037   22.6691 C   0  0  0  0  0  0  0  0  0  0  0  0
   12.5800  -11.4542   21.7000 C   0  0  0  0  0  0  0  0  0  0  0  0
   13.9947   -8.4274   22.3114 H   0  0  0  0  0  0  0  0  0  0  0  0
   12.2932   -8.4072   24.0954 H   0  0  0  0  0  0  0  0  0  0  0  0
   10.6648  -10.2831   24.2568 H   0  0  0  0  0  0  0  0  0  0  0  0
   10.8782  -12.2261   22.7847 H   0  0  0  0  0  0  0  0  0  0  0  0
   12.7098  -12.8650   20.7073 Cl  0  0  0  0  0  0  0  0  0  0  0  0
   19.0085  -12.7761   26.0699 H   0  0  0  0  0  0  0  0  0  0  0  0
   21.2508  -11.8700   26.3204 H   0  0  0  0  0  0  0  0  0  0  0  0
   22.8194  -14.9221   23.7310 H   0  0  0  0  0  0  0  0  0  0  0  0
   23.1826  -12.9251   25.1656 H   0  0  0  0  0  0  0  0  0  0  0  0
   20.5481  -15.8425   23.4754 H   0  0  0  0  0  0  0  0  0  0  0  0
   16.1032  -16.0234   22.2240 H   0  0  0  0  0  0  0  0  0  0  0  0
   15.6580  -15.2072   23.5752 H   0  0  0  0  0  0  0  0  0  0  0  0
   16.4848  -16.6299   23.6962 H   0  0  0  0  0  0  0  0  0  0  0  0
   18.3188  -15.6341   22.5428 H   0  0  0  0  0  0  0  0  0  0  0  0
   18.2019  -15.9088   25.0516 H   0  0  0  0  0  0  0  0  0  0  0  0
   17.4891  -14.3359   25.2212 H   0  0  0  0  0  0  0  0  0  0  0  0
   18.3304  -11.0518   21.7727 H   0  0  0  0  0  0  0  0  0  0  0  0
   19.2934  -10.9089   19.5162 H   0  0  0  0  0  0  0  0  0  0  0  0
   18.4769  -12.3582   18.9331 H   0  0  0  0  0  0  0  0  0  0  0  0
   20.7134  -12.2135   21.0337 H   0  0  0  0  0  0  0  0  0  0  0  0
   20.7606  -13.1043   19.5152 H   0  0  0  0  0  0  0  0  0  0  0  0
   19.0083  -14.6804   20.3159 H   0  0  0  0  0  0  0  0  0  0  0  0
   20.0379  -14.4132   21.7362 H   0  0  0  0  0  0  0  0  0  0  0  0
   16.3459   -9.8513   21.4168 H   0  0  0  0  0  0  0  0  0  0  0  0
   14.1803  -10.8634   19.5755 H   0  0  0  0  0  0  0  0  0  0  0  0
   14.4493   -9.2409   20.1036 H   0  0  0  0  0  0  0  0  0  0  0  0
  1  2  1  0
  1 37  1  0
  1 38  1  0
  1 39  1  0
  2  3  1  0
  2  5  1  0
  2 40  1  6
  3  4  2  0
  3 12  1  0
  5  6  1  0
  5 41  1  0
  5 42  1  0
  6  7  2  0
  6  8  1  0
  7  9  1  0
  7 36  1  0
  8 10  2  0
  8 32  1  0
  9 11  2  0
  9 34  1  0
 10 11  1  0
 10 33  1  0
 11 35  1  0
 12 13  1  0
 12 18  1  0
 13 14  1  0
 13 16  1  0
 13 43  1  1
 14 15  2  0
 14 19  1  0
 16 17  1  0
 16 44  1  0
 16 45  1  0
 17 18  1  0
 17 46  1  0
 17 47  1  0
 18 48  1  0
 18 49  1  0
 19 20  1  0
 19 50  1  0
 20 21  1  0
 20 51  1  0
 20 52  1  0
 21 22  2  0
 21 26  1  0
 22 23  1  0
 22 27  1  0
 23 24  2  0
 23 28  1  0
 24 25  1  0
 24 29  1  0
 25 26  2  0
 25 30  1  0
 26 31  1  0
M  CHG  1   1   1
M  END
>  <r_exp_dg>  (4) 
-8.00849

>  <experimental dG reference units>  (4) 
kcal/mol

>  <experimental dG reference field>  (4) 
r_exp_dg

>  <kJ/mol experimental dG>  (4) 
-33.50752216

>  <kcal/mol experimental dG>  (4) 
-8.00849

>  <AmberAM1BCCCache>  (4) 
gASVNwQAAAAAAABdlCiMFm51bXB5Ll9jb3JlLm11bHRpYXJyYXmUjAZzY2FsYXKUk5SMBW51bXB5lIwFZHR5cGWUk5SMAmY4lImIh5RSlChLA4wBPJROTk5K/////0r/////SwB0lGJDCOL3T47NyiPAlIaUUpRoA2gJQwhzwg6SUc3aP5SGlFKUaANoCUMIxhLVXQLEHkCUhpRSlGgDaAlDCCKG06PdZRjAlIaUUpRoA2gJQwg/ZhDnx4blv5SGlFKUaANoCUMIoq0RFxRX/L+UhpRSlGgDaAlDCFkdRXcY7fm/lIaUUpRoA2gJQwhZHUV3GO35v5SGlFKUaANoCUMIUGGqFHEs9b+UhpRSlGgDaAlDCFBhqhRxLPW/lIaUUpRoA2gJQwg3xROaKDvzv5SGlFKUaANoCUMInN3d9q/oFMCUhpRSlGgDaAlDCE4m5uSDsdA/lIaUUpRoA2gJQwhw5rrcAH4eQJSGlFKUaANoCUMIKCgYJQ8wHsCUhpRSlGgDaAlDCCUM0Lr1ZvC/lIaUUpRoA2gJQwiXEMWavhHvv5SGlFKUaANoCUMICQhi1Bcr6z+UhpRSlGgDaAlDCNlwARogPxnAlIaUUpRoA2gJQwjoU4THO7H4P5SGlFKUaANoCUMIhM2DzO379r+UhpRSlGgDaAlDCIGJjPwPkvO/lIaUUpRoA2gJQwh1WDe9mJH3v5SGlFKUaANoCUMIEEmBBz8Z9L+UhpRSlGgDaAlDCJgLzZXijPa/lIaUUpRoA2gJQwi7nfQftQPQP5SGlFKUaANoCUMIi+YSkxMD+z+UhpRSlGgDaAlDCFRGjRirRvs/lIaUUpRoA2gJQwilnP/u0er7P5SGlFKUaANoCUMIlw1d/gaK/T+UhpRSlGgDaAlDCHQuls4wHvO/lIaUUpRoA2gJQwh+3HWMCl/5P5SGlFKUaANoCUMIqkumx/sa/T+UhpRSlGgDaAlDCKpLpsf7Gv0/lIaUUpRoA2gJQwgYclvbVp39P5SGlFKUaANoCUMIftx1jApf+T+UhpRSlGgDaAlDCGqnJKpDxhVAlIaUUpRoA2gJQwhqpySqQ8YVQJSGlFKUaANoCUMIaqckqkPGFUCUhpRSlGgDaAlDCGDy3G1givo/lIaUUpRoA2gJQwiAe9FXQhL1P5SGlFKUaANoCUMIgHvRV0IS9T+UhpRSlGgDaAlDCPC73EwTi/Q/lIaUUpRoA2gJQwhh8ySi8gjuP5SGlFKUaANoCUMIYfMkovII7j+UhpRSlGgDaAlDCOlUzPvNL+w/lIaUUpRoA2gJQwjpVMz7zS/sP5SGlFKUaANoCUMITbErCLRx2T+UhpRSlGgDaAlDCE2xKwi0cdk/lIaUUpRoA2gJQwjH+r3ddJAOQJSGlFKUaANoCUMI/tYMlaAq7z+UhpRSlGgDaAlDCP7WDJWgKu8/lIaUUpRlLg==

$$$$
7f
     RDKit          3D

 56 58  0  0  1  0  0  0  0  0999 V2000
   16.3900  -15.7830   23.1600 N   0  0  0  0  0  0  0  0  0  0  0  0
   17.6570  -15.0120   23.1460 C   0  0  1  0  0  0  0  0  0  0  0  0
   17.4360  -13.6310   22.5680 C   0  0  0  0  0  0  0  0  0  0  0  0
   16.5060  -12.9450   23.0320 O   0  0  0  0  0  0  0  0  0  0  0  0
   18.1720  -14.9170   24.5950 C   0  0  0  0  0  0  0  0  0  0  0  0
   19.5920  -14.3710   24.7440 C   0  0  0  0  0  0  0  0  0  0  0  0
   20.6910  -14.9640   24.0890 C   0  0  0  0  0  0  0  0  0  0  0  0
   19.8220  -13.2490   25.5510 C   0  0  0  0  0  0  0  0  0  0  0  0
   21.9860  -14.4540   24.2350 C   0  0  0  0  0  0  0  0  0  0  0  0
   21.1010  -12.7410   25.6970 C   0  0  0  0  0  0  0  0  0  0  0  0
   22.1890  -13.3330   25.0460 C   0  0  0  0  0  0  0  0  0  0  0  0
   18.2450  -13.1710   21.5890 N   0  0  0  0  0  0  0  0  0  0  0  0
   18.0280  -11.8220   21.0620 C   0  0  2  0  0  0  0  0  0  0  0  0
   16.5810  -11.6382   20.4904 C   0  0  0  0  0  0  0  0  0  0  0  0
   16.1156  -12.5162   19.7566 O   0  0  0  0  0  0  0  0  0  0  0  0
   18.9440  -11.8950   19.8030 C   0  0  0  0  0  0  0  0  0  0  0  0
   20.1040  -12.7670   20.3170 C   0  0  0  0  0  0  0  0  0  0  0  0
   19.3760  -13.9390   21.0230 C   0  0  0  0  0  0  0  0  0  0  0  0
   15.8847  -10.5489   20.8284 N   0  0  0  0  0  0  0  0  0  0  0  0
   14.4957  -10.2731   20.4380 C   0  0  0  0  0  0  0  0  0  0  0  0
   13.4605  -10.3645   21.5591 C   0  0  0  0  0  0  0  0  0  0  0  0
   13.3169   -9.2616   22.4088 C   0  0  0  0  0  0  0  0  0  0  0  0
   12.3354   -9.2310   23.3983 C   0  0  0  0  0  0  0  0  0  0  0  0
   11.4452  -10.2981   23.5103 C   0  0  0  0  0  0  0  0  0  0  0  0
   11.5715  -11.4037   22.6691 C   0  0  0  0  0  0  0  0  0  0  0  0
   12.5800  -11.4542   21.7000 C   0  0  0  0  0  0  0  0  0  0  0  0
   13.9947   -8.4274   22.3114 H   0  0  0  0  0  0  0  0  0  0  0  0
   12.2932   -8.4072   24.0954 H   0  0  0  0  0  0  0  0  0  0  0  0
   10.3325  -10.2767   24.5748 C   0  0  0  0  0  0  0  0  0  0  0  0
   10.8782  -12.2261   22.7847 H   0  0  0  0  0  0  0  0  0  0  0  0
   12.6611  -12.3349   21.0803 H   0  0  0  0  0  0  0  0  0  0  0  0
   19.0085  -12.7761   26.0699 H   0  0  0  0  0  0  0  0  0  0  0  0
   21.2508  -11.8700   26.3204 H   0  0  0  0  0  0  0  0  0  0  0  0
   22.8194  -14.9221   23.7310 H   0  0  0  0  0  0  0  0  0  0  0  0
   23.1826  -12.9251   25.1656 H   0  0  0  0  0  0  0  0  0  0  0  0
   20.5481  -15.8425   23.4754 H   0  0  0  0  0  0  0  0  0  0  0  0
   16.1032  -16.0234   22.2240 H   0  0  0  0  0  0  0  0  0  0  0  0
   15.6580  -15.2072   23.5752 H   0  0  0  0  0  0  0  0  0  0  0  0
   16.4848  -16.6299   23.6962 H   0  0  0  0  0  0  0  0  0  0  0  0
   18.3188  -15.6341   22.5428 H   0  0  0  0  0  0  0  0  0  0  0  0
   18.2019  -15.9088   25.0516 H   0  0  0  0  0  0  0  0  0  0  0  0
   17.4891  -14.3359   25.2212 H   0  0  0  0  0  0  0  0  0  0  0  0
   18.3304  -11.0518   21.7727 H   0  0  0  0  0  0  0  0  0  0  0  0
   19.2934  -10.9089   19.5162 H   0  0  0  0  0  0  0  0  0  0  0  0
   18.4769  -12.3582   18.9331 H   0  0  0  0  0  0  0  0  0  0  0  0
   20.7134  -12.2135   21.0337 H   0  0  0  0  0  0  0  0  0  0  0  0
   20.7606  -13.1043   19.5152 H   0  0  0  0  0  0  0  0  0  0  0  0
   19.0083  -14.6804   20.3159 H   0  0  0  0  0  0  0  0  0  0  0  0
   20.0379  -14.4132   21.7362 H   0  0  0  0  0  0  0  0  0  0  0  0
   16.3459   -9.8513   21.4168 H   0  0  0  0  0  0  0  0  0  0  0  0
   14.1803  -10.8634   19.5755 H   0  0  0  0  0  0  0  0  0  0  0  0
   14.4493   -9.2409   20.1036 H   0  0  0  0  0  0  0  0  0  0  0  0
    9.3827  -10.5480   24.1139 H   0  0  0  0  0  0  0  0  0  0  0  0
   10.6396  -11.2000   25.5953 O   0  0  0  0  0  0  0  0  0  0  0  0
   10.2561   -9.2765   25.0013 H   0  0  0  0  0  0  0  0  0  0  0  0
    9.9460  -11.1866   26.2588 H   0  0  0  0  0  0  0  0  0  0  0  0
  1  2  1  0
  1 37  1  0
  1 38  1  0
  1 39  1  0
  2  3  1  0
  2  5  1  0
  2 40  1  6
  3  4  2  0
  3 12  1  0
  5  6  1  0
  5 41  1  0
  5 42  1  0
  6  7  2  0
  6  8  1  0
  7  9  1  0
  7 36  1  0
  8 10  2  0
  8 32  1  0
  9 11  2  0
  9 34  1  0
 10 11  1  0
 10 33  1  0
 11 35  1  0
 12 13  1  0
 12 18  1  0
 13 14  1  0
 13 16  1  0
 13 43  1  1
 14 15  2  0
 14 19  1  0
 16 17  1  0
 16 44  1  0
 16 45  1  0
 17 18  1  0
 17 46  1  0
 17 47  1  0
 18 48  1  0
 18 49  1  0
 19 20  1  0
 19 50  1  0
 20 21  1  0
 20 51  1  0
 20 52  1  0
 21 22  2  0
 21 26  1  0
 22 23  1  0
 22 27  1  0
 23 24  2  0
 23 28  1  0
 24 25  1  0
 24 29  1  0
 25 26  2  0
 25 30  1  0
 26 31  1  0
 29 53  1  0
 29 54  1  0
 29 55  1  0
 54 56  1  0
M  CHG  1   1   1
M  END
>  <r_exp_dg>  (5) 
-6.12277

>  <experimental dG reference units>  (5) 
kcal/mol

>  <experimental dG reference field>  (5) 
r_exp_dg

>  <kJ/mol experimental dG>  (5) 
-25.617669680000002

>  <kcal/mol experimental dG>  (5) 
-6.12277

>  <AmberAM1BCCCache>  (5) 
gASVgwQAAAAAAABdlCiMFm51bXB5Ll9jb3JlLm11bHRpYXJyYXmUjAZzY2FsYXKUk5SMBW51bXB5lIwFZHR5cGWUk5SMAmY4lImIh5RSlChLA4wBPJROTk5K/////0r/////SwB0lGJDCHB8wZygwyPAlIaUUpRoA2gJQwjqnLd7bILdP5SGlFKUaANoCUMI5ocgIHfkHkCUhpRSlGgDaAlDCC0FvgYcvhjAlIaUUpRoA2gJQwjmDqNTkFflv5SGlFKUaANoCUMIdGZZKshS/L+UhpRSlGgDaAlDCNtyb8Nqyfm/lIaUUpRoA2gJQwjbcm/Dasn5v5SGlFKUaANoCUMImhZP5lpM9b+UhpRSlGgDaAlDCJoWT+ZaTPW/lIaUUpRoA2gJQwjKS9y+NC3zv5SGlFKUaANoCUMIXM9SPWfDFMCUhpRSlGgDaAlDCPhCx5ezwtA/lIaUUpRoA2gJQwhAweWRs6UeQJSGlFKUaANoCUMIWRFA85hnH8CUhpRSlGgDaAlDCOO90UoVq/C/lIaUUpRoA2gJQwiSD8rdrYbvv5SGlFKUaANoCUMIriNIyjax6z+UhpRSlGgDaAlDCJaZeaY38xjAlIaUUpRoA2gJQwiqPYRazFn4P5SGlFKUaANoCUMIjNhOtqjQ+b+UhpRSlGgDaAlDCEOZ2z2DNva/lIaUUpRoA2gJQwjEQYhRbp71v5SGlFKUaANoCUMIrc/BDfDn6b+UhpRSlGgDaAlDCMRBiFFunvW/lIaUUpRoA2gJQwhDmds9gzb2v5SGlFKUaANoCUMI5YywrV5G+T+UhpRSlGgDaAlDCHALTgVnZfw/lIaUUpRoA2gJQwg6IU3yBCoAQJSGlFKUaANoCUMIcAtOBWdl/D+UhpRSlGgDaAlDCOWMsK1eRvk/lIaUUpRoA2gJQwicu4xaPHT5P5SGlFKUaANoCUMIUS5g1/cL/T+UhpRSlGgDaAlDCFEuYNf3C/0/lIaUUpRoA2gJQwgjINTQzpz9P5SGlFKUaANoCUMInLuMWjx0+T+UhpRSlGgDaAlDCP1rtmeQ7RVAlIaUUpRoA2gJQwj9a7ZnkO0VQJSGlFKUaANoCUMI/Wu2Z5DtFUCUhpRSlGgDaAlDCLxhd0JL9Pg/lIaUUpRoA2gJQwjMaHQsnZb0P5SGlFKUaANoCUMIzGh0LJ2W9D+UhpRSlGgDaAlDCEQuzqRy4fQ/lIaUUpRoA2gJQwiExGKcN3LtP5SGlFKUaANoCUMIhMRinDdy7T+UhpRSlGgDaAlDCJ6u+7rhRuw/lIaUUpRoA2gJQwiervu64UbsP5SGlFKUaANoCUMIKQY6sHRl3T+UhpRSlGgDaAlDCCkGOrB0Zd0/lIaUUpRoA2gJQwjB9oOqURwOQJSGlFKUaANoCUMIlgKsZSwD7T+UhpRSlGgDaAlDCJYCrGUsA+0/lIaUUpRoA2gJQwiF7qX62lbeP5SGlFKUaANoCUMImN1wdhVdHMCUhpRSlGgDaAlDCIXupfraVt4/lIaUUpRoA2gJQwh2QdXxN2gTQJSGlFKUZS4=

$$$$
2b pose 1
     RDKit          3D

 56 58  0  0  1  0  0  0  0  0999 V2000
   16.3900  -15.7830   23.1600 N   0  0  0  0  0  0  0  0  0  0  0  0
   17.6570  -15.0120   23.1460 C   0  0  1  0  0  0  0  0  0  0  0  0
   17.4360  -13.6310   22.5680 C   0  0  0  0  0  0  0  0  0  0  0  0
   16.5060  -12.9450   23.0320 O   0  0  0  0  0  0  0  0  0  0  0  0
   18.1720  -14.9170   24.5950 C   0  0  0  0  0  0  0  0  0  0  0  0
   19.5920  -14.3710   24.7440 C   0  0  0  0  0  0  0  0  0  0  0  0
   20.6910  -14.9640   24.0890 C   0  0  0  0  0  0  0  0  0  0  0  0
   19.8220  -13.2490   25.5510 C   0  0  0  0  0  0  0  0  0  0  0  0
   21.9860  -14.4540   24.2350 C   0  0  0  0  0  0  0  0  0  0  0  0
   21.1010  -12.7410   25.6970 C   0  0  0  0  0  0  0  0  0  0  0  0
   22.1890  -13.3330   25.0460 C   0  0  0  0  0  0  0  0  0  0  0  0
   18.2450  -13.1710   21.5890 N   0  0  0  0  0  0  0  0  0  0  0  0
   18.0280  -11.8220   21.0620 C   0  0  2  0  0  0  0  0  0  0  0  0
   16.5893  -11.6156   20.4925 C   0  0  0  0  0  0  0  0  0  0  0  0
   16.0751  -12.5094   19.8121 O   0  0  0  0  0  0  0  0  0  0  0  0
   18.9440  -11.8950   19.8030 C   0  0  0  0  0  0  0  0  0  0  0  0
   20.1040  -12.7670   20.3170 C   0  0  0  0  0  0  0  0  0  0  0  0
   19.3760  -13.9390   21.0230 C   0  0  0  0  0  0  0  0  0  0  0  0
   15.9723  -10.4627   20.7546 N   0  0  0  0  0  0  0  0  0  0  0  0
   14.6088  -10.1143   20.3543 C   0  0  0  0  0  0  0  0  0  0  0  0
   13.5124  -10.6096   21.2813 C   0  0  0  0  0  0  0  0  0  0  0  0
   13.0572   -9.7888   22.3185 C   0  0  0  0  0  0  0  0  0  0  0  0
   12.0122  -10.2038   23.1515 C   0  0  0  0  0  0  0  0  0  0  0  0
   11.3997  -11.4364   22.9033 C   0  0  0  0  0  0  0  0  0  0  0  0
   11.8400  -12.2533   21.8630 C   0  0  0  0  0  0  0  0  0  0  0  0
   12.8928  -11.8404   21.0503 C   0  0  0  0  0  0  0  0  0  0  0  0
   13.5466   -8.8414   22.4802 H   0  0  0  0  0  0  0  0  0  0  0  0
   11.6155   -9.4977   24.2490 O   0  0  0  0  0  0  0  0  0  0  0  0
   10.5882  -11.7766   23.5346 H   0  0  0  0  0  0  0  0  0  0  0  0
   11.3676  -13.2112   21.6988 H   0  0  0  0  0  0  0  0  0  0  0  0
   13.2307  -12.4772   20.2443 H   0  0  0  0  0  0  0  0  0  0  0  0
   19.0084  -12.7761   26.0698 H   0  0  0  0  0  0  0  0  0  0  0  0
   21.2507  -11.8699   26.3203 H   0  0  0  0  0  0  0  0  0  0  0  0
   22.8194  -14.9221   23.7310 H   0  0  0  0  0  0  0  0  0  0  0  0
   23.1826  -12.9251   25.1656 H   0  0  0  0  0  0  0  0  0  0  0  0
   20.5480  -15.8424   23.4754 H   0  0  0  0  0  0  0  0  0  0  0  0
   16.4839  -16.6302   23.6957 H   0  0  0  0  0  0  0  0  0  0  0  0
   15.6582  -15.2064   23.5747 H   0  0  0  0  0  0  0  0  0  0  0  0
   16.1026  -16.0217   22.2237 H   0  0  0  0  0  0  0  0  0  0  0  0
   18.3187  -15.6341   22.5428 H   0  0  0  0  0  0  0  0  0  0  0  0
   18.2018  -15.9088   25.0515 H   0  0  0  0  0  0  0  0  0  0  0  0
   17.4890  -14.3358   25.2211 H   0  0  0  0  0  0  0  0  0  0  0  0
   18.3384  -11.0560   21.7738 H   0  0  0  0  0  0  0  0  0  0  0  0
   19.2923  -10.9089   19.5148 H   0  0  0  0  0  0  0  0  0  0  0  0
   18.4714  -12.3587   18.9360 H   0  0  0  0  0  0  0  0  0  0  0  0
   20.7135  -12.2133   21.0336 H   0  0  0  0  0  0  0  0  0  0  0  0
   20.7606  -13.1044   19.5152 H   0  0  0  0  0  0  0  0  0  0  0  0
   19.0084  -14.6805   20.3160 H   0  0  0  0  0  0  0  0  0  0  0  0
   20.0378  -14.4131   21.7363 H   0  0  0  0  0  0  0  0  0  0  0  0
   16.4734   -9.7711   21.3189 H   0  0  0  0  0  0  0  0  0  0  0  0
   14.3980  -10.4680   19.3418 H   0  0  0  0  0  0  0  0  0  0  0  0
   14.5362   -9.0269   20.3247 H   0  0  0  0  0  0  0  0  0  0  0  0
   12.1152   -8.1914   24.4280 C   0  0  0  0  0  0  0  0  0  0  0  0
   13.1714   -8.0827   24.1892 H   0  0  0  0  0  0  0  0  0  0  0  0
   11.5334   -7.4677   23.8763 H   0  0  0  0  0  0  0  0  0  0  0  0
   12.0152   -7.8663   25.4562 H   0  0  0  0  0  0  0  0  0  0  0  0
  1  2  1  0
  1 37  1  0
  1 38  1  0
  1 39  1  0
  2  3  1  0
  2  5  1  0
  2 40  1  6
  3  4  2  0
  3 12  1  0
  5  6  1  0
  5 41  1  0
  5 42  1  0
  6  7  2  0
  6  8  1  0
  7  9  1  0
  7 36  1  0
  8 10  2  0
  8 32  1  0
  9 11  2  0
  9 34  1  0
 10 11  1  0
 10 33  1  0
 11 35  1  0
 12 13  1  0
 12 18  1  0
 13 14  1  0
 13 16  1  0
 13 43  1  1
 14 15  2  0
 14 19  1  0
 16 17  1  0
 16 44  1  0
 16 45  1  0
 17 18  1  0
 17 46  1  0
 17 47  1  0
 18 48  1  0
 18 49  1  0
 19 20  1  0
 19 50  1  0
 20 21  1  0
 20 51  1  0
 20 52  1  0
 21 22  2  0
 21 26  1  0
 22 23  1  0
 22 27  1  0
 23 24  2  0
 23 28  1  0
 24 25  1  0
 24 29  1  0
 25 26  2  0
 25 30  1  0
 26 31  1  0
 28 53  1  0
 53 54  1  0
 53 55  1  0
 53 56  1  0
M  CHG  1   1   1
M  END
>  <r_exp_dg>  (6) 
-7.28564

>  <experimental dG reference units>  (6) 
kcal/mol

>  <experimental dG reference field>  (6) 
r_exp_dg

>  <kJ/mol experimental dG>  (6) 
-30.483117760000003

>  <kcal/mol experimental dG>  (6) 
-7.28564

>  <AmberAM1BCCCache>  (6) 
gASVgwQAAAAAAABdlCiMFm51bXB5Ll9jb3JlLm11bHRpYXJyYXmUjAZzY2FsYXKUk5SMBW51bXB5lIwFZHR5cGWUk5SMAmY4lImIh5RSlChLA4wBPJROTk5K/////0r/////SwB0lGJDCIv/6nMYyyPAlIaUUpRoA2gJQwhoza3e9MPaP5SGlFKUaANoCUMIKWl+harKHkCUhpRSlGgDaAlDCH79qo2NVRjAlIaUUpRoA2gJQwhQ17iRBezlv5SGlFKUaANoCUMInO9tmyMp/L+UhpRSlGgDaAlDCJtaHaRv7/m/lIaUUpRoA2gJQwibWh2kb+/5v5SGlFKUaANoCUMI1NABMHA49b+UhpRSlGgDaAlDCNTQATBwOPW/lIaUUpRoA2gJQwh5AuzGfz3zv5SGlFKUaANoCUMI8qBk0dLgFMCUhpRSlGgDaAlDCEtkNzeSM88/lIaUUpRoA2gJQwhh9FdVAFgeQJSGlFKUaANoCUMId25RNgUKHsCUhpRSlGgDaAlDCC+pIm3krPC/lIaUUpRoA2gJQwgci3X0bBbvv5SGlFKUaANoCUMI+Za5KdrF6j+UhpRSlGgDaAlDCDQf3EkwCBnAlIaUUpRoA2gJQwgUjrrVFQH4P5SGlFKUaANoCUMIZ8Si/Yqs87+UhpRSlGgDaAlDCMUapwY3e/y/lIaUUpRoA2gJQwgCasftlmb3P5SGlFKUaANoCUMI6DVJMMm6AcCUhpRSlGgDaAlDCDY7HOEj+vC/lIaUUpRoA2gJQwh+Hyte70r8v5SGlFKUaANoCUMIwUeTDOHZ/D+UhpRSlGgDaAlDCIcSxmuqZA/AlIaUUpRoA2gJQwjZaC9x64f7P5SGlFKUaANoCUMICne7dxT3+j+UhpRSlGgDaAlDCK6OTy2uBfo/lIaUUpRoA2gJQwg9n51fs1z5P5SGlFKUaANoCUMIBUMPtSgK/T+UhpRSlGgDaAlDCAVDD7UoCv0/lIaUUpRoA2gJQwjXNIOu/5r9P5SGlFKUaANoCUMIPZ+dX7Nc+T+UhpRSlGgDaAlDCN56UUsSxBVAlIaUUpRoA2gJQwjeelFLEsQVQJSGlFKUaANoCUMI3npRSxLEFUCUhpRSlGgDaAlDCB+1BEEJiPo/lIaUUpRoA2gJQwglN7OnVlj1P5SGlFKUaANoCUMIJTezp1ZY9T+UhpRSlGgDaAlDCPhCfYKj3/Q/lIaUUpRoA2gJQwiRtPvlXK3tP5SGlFKUaANoCUMIkbT75Vyt7T+UhpRSlGgDaAlDCKvVl0pnW+w/lIaUUpRoA2gJQwir1ZdKZ1vsP5SGlFKUaANoCUMIQ7zKVFdo2T+UhpRSlGgDaAlDCEO8ylRXaNk/lIaUUpRoA2gJQwhRIeGT0tcNQJSGlFKUaANoCUMIpaHrh3tu7j+UhpRSlGgDaAlDCKWh64d7bu4/lIaUUpRoA2gJQwg9Pvkq6w/1P5SGlFKUaANoCUMI5xgz8bh84j+UhpRSlGgDaAlDCOcYM/G4fOI/lIaUUpRoA2gJQwjnGDPxuHziP5SGlFKUZS4=

$$$$
1a pose 2
     RDKit          3D

 52 54  0  0  1  0  0  0  0  0999 V2000
   16.3900  -15.7830   23.1600 N   0  0  0  0  0  0  0  0  0  0  0  0
   17.6570  -15.0120   23.1460 C   0  0  1  0  0  0  0  0  0  0  0  0
   17.4360  -13.6310   22.5680 C   0  0  0  0  0  0  0  0  0  0  0  0
   16.5060  -12.9450   23.0320 O   0  0  0  0  0  0  0  0  0  0  0  0
   18.1720  -14.9170   24.5950 C   0  0  0  0  0  0  0  0  0  0  0  0
   19.5920  -14.3710   24.7440 C   0  0  0  0  0  0  0  0  0  0  0  0
   20.6910  -14.9640   24.0890 C   0  0  0  0  0  0  0  0  0  0  0  0
   19.8220  -13.2490   25.5510 C   0  0  0  0  0  0  0  0  0  0  0  0
   21.9860  -14.4540   24.2350 C   0  0  0  0  0  0  0  0  0  0  0  0
   21.1010  -12.7410   25.6970 C   0  0  0  0  0  0  0  0  0  0  0  0
   22.1890  -13.3330   25.0460 C   0  0  0  0  0  0  0  0  0  0  0  0
   18.2450  -13.1710   21.5890 N   0  0  0  0  0  0  0  0  0  0  0  0
   18.0280  -11.8220   21.0620 C   0  0  2  0  0  0  0  0  0  0  0  0
   16.5878  -11.6158   20.4971 C   0  0  0  0  0  0  0  0  0  0  0  0
   16.0688  -12.5100   19.8212 O   0  0  0  0  0  0  0  0  0  0  0  0
   18.9440  -11.8950   19.8030 C   0  0  0  0  0  0  0  0  0  0  0  0
   20.1040  -12.7670   20.3170 C   0  0  0  0  0  0  0  0  0  0  0  0
   19.3760  -13.9390   21.0230 C   0  0  0  0  0  0  0  0  0  0  0  0
   15.9695  -10.4657   20.7663 N   0  0  0  0  0  0  0  0  0  0  0  0
   14.5989  -10.1271   20.3840 C   0  0  0  0  0  0  0  0  0  0  0  0
   13.5235  -10.5735   21.3619 C   0  0  0  0  0  0  0  0  0  0  0  0
   13.0773   -9.6918   22.3523 C   0  0  0  0  0  0  0  0  0  0  0  0
   12.0268  -10.0465   23.1931 C   0  0  0  0  0  0  0  0  0  0  0  0
   11.3965  -11.2792   23.0369 C   0  0  0  0  0  0  0  0  0  0  0  0
   11.8367  -12.1686   22.0552 C   0  0  0  0  0  0  0  0  0  0  0  0
   12.8947  -11.8149   21.2160 C   0  0  0  0  0  0  0  0  0  0  0  0
   13.5422   -8.7262   22.4827 H   0  0  0  0  0  0  0  0  0  0  0  0
   11.7118   -9.3632   23.9678 H   0  0  0  0  0  0  0  0  0  0  0  0
   10.5699  -11.5428   23.6835 H   0  0  0  0  0  0  0  0  0  0  0  0
   11.2394  -13.3528   21.9221 F   0  0  0  0  0  0  0  0  0  0  0  0
   13.2234  -12.5028   20.4487 H   0  0  0  0  0  0  0  0  0  0  0  0
   19.0085  -12.7762   26.0701 H   0  0  0  0  0  0  0  0  0  0  0  0
   21.2508  -11.8700   26.3204 H   0  0  0  0  0  0  0  0  0  0  0  0
   22.8194  -14.9222   23.7310 H   0  0  0  0  0  0  0  0  0  0  0  0
   23.1826  -12.9251   25.1656 H   0  0  0  0  0  0  0  0  0  0  0  0
   20.5480  -15.8425   23.4754 H   0  0  0  0  0  0  0  0  0  0  0  0
   16.4848  -16.6306   23.6952 H   0  0  0  0  0  0  0  0  0  0  0  0
   15.6578  -15.2078   23.5754 H   0  0  0  0  0  0  0  0  0  0  0  0
   16.1026  -16.0221   22.2238 H   0  0  0  0  0  0  0  0  0  0  0  0
   18.3189  -15.6340   22.5429 H   0  0  0  0  0  0  0  0  0  0  0  0
   18.2021  -15.9089   25.0514 H   0  0  0  0  0  0  0  0  0  0  0  0
   17.4890  -14.3362   25.2215 H   0  0  0  0  0  0  0  0  0  0  0  0
   18.3393  -11.0564   21.7739 H   0  0  0  0  0  0  0  0  0  0  0  0
   19.2924  -10.9090   19.5145 H   0  0  0  0  0  0  0  0  0  0  0  0
   18.4701  -12.3584   18.9366 H   0  0  0  0  0  0  0  0  0  0  0  0
   20.7136  -12.2134   21.0335 H   0  0  0  0  0  0  0  0  0  0  0  0
   20.7606  -13.1044   19.5152 H   0  0  0  0  0  0  0  0  0  0  0  0
   19.0086  -14.6806   20.3160 H   0  0  0  0  0  0  0  0  0  0  0  0
   20.0380  -14.4130   21.7362 H   0  0  0  0  0  0  0  0  0  0  0  0
   16.4740   -9.7730   21.3265 H   0  0  0  0  0  0  0  0  0  0  0  0
   14.3593  -10.5167   19.3910 H   0  0  0  0  0  0  0  0  0  0  0  0
   14.5311   -9.0417   20.3110 H   0  0  0  0  0  0  0  0  0  0  0  0
  1  2  1  0
  1 37  1  0
  1 38  1  0
  1 39  1  0
  2  3  1  0
  2  5  1  0
  2 40  1  6
  3  4  2  0
  3 12  1  0
  5  6  1  0
  5 41  1  0
  5 42  1  0
  6  7  2  0
  6  8  1  0
  7  9  1  0
  7 36  1  0
  8 10  2  0
  8 32  1  0
  9 11  2  0
  9 34  1  0
 10 11  1  0
 10 33  1  0
 11 35  1  0
 12 13  1  0
 12 18  1  0
 13 14  1  0
 13 16  1  0
 13 43  1  1
 14 15  2  0
 14 19  1  0
 16 17  1  0
 16 44  1  0
 16 45  1  0
 17 18  1  0
 17 46  1  0
 17 47  1  0
 18 48  1  0
 18 49  1  0
 19 20  1  0
 19 50  1  0
 20 21  1  0
 20 51  1  0
 20 52  1  0
 21 22  2  0
 21 26  1  0
 22 23  1  0
 22 27  1  0
 23 24  2  0
 23 28  1  0
 24 25  1  0
 24 29  1  0
 25 26  2  0
 25 30  1  0
 26 31  1  0
M  CHG  1   1   1
M  END
>  <r_exp_dg>  (7) 
-7.4093

>  <experimental dG reference units>  (7) 
kcal/mol

>  <experimental dG reference field>  (7) 
r_exp_dg

>  <kJ/mol experimental dG>  (7) 
-31.000511200000002

>  <kcal/mol experimental dG>  (7) 
-7.4093

>  <AmberAM1BCCCache>  (7) 
gASVNwQAAAAAAABdlCiMFm51bXB5Ll9jb3JlLm11bHRpYXJyYXmUjAZzY2FsYXKUk5SMBW51bXB5lIwFZHR5cGWUk5SMAmY4lImIh5RSlChLA4wBPJROTk5K/////0r/////SwB0lGJDCN+TRQQyxiPAlIaUUpRoA2gJQwjUikGjwJXcP5SGlFKUaANoCUMIe0DJZHfUHkCUhpRSlGgDaAlDCHTq2BCoohjAlIaUUpRoA2gJQwghJmpGDz3lv5SGlFKUaANoCUMIWO04TM91/L+UhpRSlGgDaAlDCKzIsAy41vm/lIaUUpRoA2gJQwisyLAMuNb5v5SGlFKUaANoCUMIZqOTdQgz9b+UhpRSlGgDaAlDCGajk3UIM/W/lIaUUpRoA2gJQwjrOz4VRDPzv5SGlFKUaANoCUMITy/55EPeFMCUhpRSlGgDaAlDCI9vL+CUa9E/lIaUUpRoA2gJQwgVrA3FW58eQJSGlFKUaANoCUMICoMV42jNHsCUhpRSlGgDaAlDCGCw9cwAmfC/lIaUUpRoA2gJQwiL9BHihGLvv5SGlFKUaANoCUMIsHUDDMCu6z+UhpRSlGgDaAlDCJV2bRdBLBnAlIaUUpRoA2gJQwjnT+QvmTv4P5SGlFKUaANoCUMIHflw9JbS87+UhpRSlGgDaAlDCH0l1A7bLfi/lIaUUpRoA2gJQwgj3MOPrO/yv5SGlFKUaANoCUMIsyb+vQs3/L+UhpRSlGgDaAlDCG5938aIdfg/lIaUUpRoA2gJQwjKqD5X3jH/v5SGlFKUaANoCUMI1KbrXVjk+j+UhpRSlGgDaAlDCDNYVGJe/Ps/lIaUUpRoA2gJQwjyuiVraiz+P5SGlFKUaANoCUMI/W98CrVK+b+UhpRSlGgDaAlDCC6PV6i+1fs/lIaUUpRoA2gJQwjr/ooIw2v5P5SGlFKUaANoCUMI99R7TOAi/T+UhpRSlGgDaAlDCPfUe0zgIv0/lIaUUpRoA2gJQwgjybFxk5v9P5SGlFKUaANoCUMI6/6KCMNr+T+UhpRSlGgDaAlDCNZB0saX4xVAlIaUUpRoA2gJQwjWQdLGl+MVQJSGlFKUaANoCUMI1kHSxpfjFUCUhpRSlGgDaAlDCI3FxZaGqvk/lIaUUpRoA2gJQwjfQvClG6v0P5SGlFKUaANoCUMI30LwpRur9D+UhpRSlGgDaAlDCEXXq0U34PQ/lIaUUpRoA2gJQwhjfd7m7GrtP5SGlFKUaANoCUMIY33e5uxq7T+UhpRSlGgDaAlDCAmVcpyGeew/lIaUUpRoA2gJQwgJlXKchnnsP5SGlFKUaANoCUMI1opBo8CV3D+UhpRSlGgDaAlDCNaKQaPAldw/lIaUUpRoA2gJQwiklrHgLyoOQJSGlFKUaANoCUMIgPzH/Ep57j+UhpRSlGgDaAlDCID8x/xKee4/lIaUUpRlLg==

$$$$
7e pose 1
     RDKit          3D

 56 58  0  0  1  0  0  0  0  0999 V2000
   16.3900  -15.7830   23.1600 N   0  0  0  0  0  0  0  0  0  0  0  0
   17.6570  -15.0120   23.1460 C   0  0  1  0  0  0  0  0  0  0  0  0
   17.4360  -13.6310   22.5680 C   0  0  0  0  0  0  0  0  0  0  0  0
   16.5060  -12.9450   23.0320 O   0  0  0  0  0  0  0  0  0  0  0  0
   18.1720  -14.9170   24.5950 C   0  0  0  0  0  0  0  0  0  0  0  0
   19.5920  -14.3710   24.7440 C   0  0  0  0  0  0  0  0  0  0  0  0
   20.6910  -14.9640   24.0890 C   0  0  0  0  0  0  0  0  0  0  0  0
   19.8220  -13.2490   25.5510 C   0  0  0  0  0  0  0  0  0  0  0  0
   21.9860  -14.4540   24.2350 C   0  0  0  0  0  0  0  0  0  0  0  0
   21.1010  -12.7410   25.6970 C   0  0  0  0  0  0  0  0  0  0  0  0
   22.1890  -13.3330   25.0460 C   0  0  0  0  0  0  0  0  0  0  0  0
   18.2450  -13.1710   21.5890 N   0  0  0  0  0  0  0  0  0  0  0  0
   18.0280  -11.8220   21.0620 C   0  0  2  0  0  0  0  0  0  0  0  0
   16.5810  -11.6382   20.4904 C   0  0  0  0  0  0  0  0  0  0  0  0
   16.1156  -12.5162   19.7566 O   0  0  0  0  0  0  0  0  0  0  0  0
   18.9440  -11.8950   19.8030 C   0  0  0  0  0  0  0  0  0  0  0  0
   20.1040  -12.7670   20.3170 C   0  0  0  0  0  0  0  0  0  0  0  0
   19.3760  -13.9390   21.0230 C   0  0  0  0  0  0  0  0  0  0  0  0
   15.8847  -10.5489   20.8284 N   0  0  0  0  0  0  0  0  0  0  0  0
   14.4957  -10.2731   20.4380 C   0  0  0  0  0  0  0  0  0  0  0  0
   13.4605  -10.3645   21.5591 C   0  0  0  0  0  0  0  0  0  0  0  0
   12.9030  -11.6185   21.8344 C   0  0  0  0  0  0  0  0  0  0  0  0
   12.0199  -11.8024   22.8973 C   0  0  0  0  0  0  0  0  0  0  0  0
   11.7263  -10.7273   23.7349 C   0  0  0  0  0  0  0  0  0  0  0  0
   12.2761   -9.4713   23.4773 C   0  0  0  0  0  0  0  0  0  0  0  0
   13.1328   -9.2748   22.3882 C   0  0  0  0  0  0  0  0  0  0  0  0
   13.1434  -12.4555   21.1968 H   0  0  0  0  0  0  0  0  0  0  0  0
   11.5384  -12.7580   23.0435 H   0  0  0  0  0  0  0  0  0  0  0  0
   11.0610  -10.8553   24.5760 H   0  0  0  0  0  0  0  0  0  0  0  0
   11.9142   -8.3006   24.4101 C   0  0  0  0  0  0  0  0  0  0  0  0
   13.5233   -8.2843   22.2069 H   0  0  0  0  0  0  0  0  0  0  0  0
   19.0085  -12.7761   26.0699 H   0  0  0  0  0  0  0  0  0  0  0  0
   21.2508  -11.8700   26.3204 H   0  0  0  0  0  0  0  0  0  0  0  0
   22.8194  -14.9221   23.7310 H   0  0  0  0  0  0  0  0  0  0  0  0
   23.1826  -12.9251   25.1656 H   0  0  0  0  0  0  0  0  0  0  0  0
   20.5481  -15.8425   23.4754 H   0  0  0  0  0  0  0  0  0  0  0  0
   16.1032  -16.0234   22.2240 H   0  0  0  0  0  0  0  0  0  0  0  0
   15.6580  -15.2072   23.5752 H   0  0  0  0  0  0  0  0  0  0  0  0
   16.4848  -16.6299   23.6962 H   0  0  0  0  0  0  0  0  0  0  0  0
   18.3188  -15.6341   22.5428 H   0  0  0  0  0  0  0  0  0  0  0  0
   18.2019  -15.9088   25.0516 H   0  0  0  0  0  0  0  0  0  0  0  0
   17.4891  -14.3359   25.2212 H   0  0  0  0  0  0  0  0  0  0  0  0
   18.3304  -11.0518   21.7727 H   0  0  0  0  0  0  0  0  0  0  0  0
   19.2934  -10.9089   19.5162 H   0  0  0  0  0  0  0  0  0  0  0  0
   18.4769  -12.3582   18.9331 H   0  0  0  0  0  0  0  0  0  0  0  0
   20.7134  -12.2135   21.0337 H   0  0  0  0  0  0  0  0  0  0  0  0
   20.7606  -13.1043   19.5152 H   0  0  0  0  0  0  0  0  0  0  0  0
   19.0083  -14.6804   20.3159 H   0  0  0  0  0  0  0  0  0  0  0  0
   20.0379  -14.4132   21.7362 H   0  0  0  0  0  0  0  0  0  0  0  0
   16.3459   -9.8513   21.4168 H   0  0  0  0  0  0  0  0  0  0  0  0
   14.1803  -10.8634   19.5755 H   0  0  0  0  0  0  0  0  0  0  0  0
   14.4493   -9.2409   20.1036 H   0  0  0  0  0  0  0  0  0  0  0  0
   12.8038   -7.9780   24.9510 H   0  0  0  0  0  0  0  0  0  0  0  0
   11.5280   -7.4703   23.8189 H   0  0  0  0  0  0  0  0  0  0  0  0
   10.9313   -8.7187   25.3305 O   0  0  0  0  0  0  0  0  0  0  0  0
   10.7057   -7.9889   25.9120 H   0  0  0  0  0  0  0  0  0  0  0  0
  1  2  1  0
  1 37  1  0
  1 38  1  0
  1 39  1  0
  2  3  1  0
  2  5  1  0
  2 40  1  6
  3  4  2  0
  3 12  1  0
  5  6  1  0
  5 41  1  0
  5 42  1  0
  6  7  2  0
  6  8  1  0
  7  9  1  0
  7 36  1  0
  8 10  2  0
  8 32  1  0
  9 11  2  0
  9 34  1  0
 10 11  1  0
 10 33  1  0
 11 35  1  0
 12 13  1  0
 12 18  1  0
 13 14  1  0
 13 16  1  0
 13 43  1  1
 14 15  2  0
 14 19  1  0
 16 17  1  0
 16 44  1  0
 16 45  1  0
 17 18  1  0
 17 46  1  0
 17 47  1  0
 18 48  1  0
 18 49  1  0
 19 20  1  0
 19 50  1  0
 20 21  1  0
 20 51  1  0
 20 52  1  0
 21 22  2  0
 21 26  1  0
 22 23  1  0
 22 27  1  0
 23 24  2  0
 23 28  1  0
 24 25  1  0
 24 29  1  0
 25 26  2  0
 25 30  1  0
 26 31  1  0
 30 53  1  0
 30 54  1  0
 30 55  1  0
 55 56  1  0
M  CHG  1   1   1
M  END
>  <r_exp_dg>  (8) 
-5.65473

>  <experimental dG reference units>  (8) 
kcal/mol

>  <experimental dG reference field>  (8) 
r_exp_dg

>  <kJ/mol experimental dG>  (8) 
-23.65939032

>  <kcal/mol experimental dG>  (8) 
-5.65473

>  <AmberAM1BCCCache>  (8) 
gASVgwQAAAAAAABdlCiMFm51bXB5Ll9jb3JlLm11bHRpYXJyYXmUjAZzY2FsYXKUk5SMBW51bXB5lIwFZHR5cGWUk5SMAmY4lImIh5RSlChLA4wBPJROTk5K/////0r/////SwB0lGJDCBJkOIEjyyPAlIaUUpRoA2gJQwh4PAE1k8LaP5SGlFKUaANoCUMI0rkTbV/JHkCUhpRSlGgDaAlDCI3GRaijVRjAlIaUUpRoA2gJQwhB8pPPxrLlv5SGlFKUaANoCUMIHw9VrsNZ/L+UhpRSlGgDaAlDCNd+iA7I7/m/lIaUUpRoA2gJQwjXfogOyO/5v5SGlFKUaANoCUMIEPVsmsg49b+UhpRSlGgDaAlDCBD1bJrIOPW/lIaUUpRoA2gJQwi2Jlcx2D3zv5SGlFKUaANoCUMI0mge1vrsFMCUhpRSlGgDaAlDCEsO3xOGWdA/lIaUUpRoA2gJQwj/3Esem2ceQJSGlFKUaANoCUMIds9KMgEbHsCUhpRSlGgDaAlDCGzNjdc8rfC/lIaUUpRoA2gJQwiZnEiDvT3vv5SGlFKUaANoCUMIB3ze6xj/6j+UhpRSlGgDaAlDCAZ/9C8+JRnAlIaUUpRoA2gJQwhiYEe8TGH4P5SGlFKUaANoCUMI6A0r/5JQ+L+UhpRSlGgDaAlDCGRlNVJl0/S/lIaUUpRoA2gJQwip9QHyYD33v5SGlFKUaANoCUMIpZe0QA3d9L+UhpRSlGgDaAlDCJPuu27Mhfe/lIaUUpRoA2gJQwgKEhr/shv2v5SGlFKUaANoCUMINgFijk0i+j+UhpRSlGgDaAlDCA+Fz/tjAPs/lIaUUpRoA2gJQwiGV9RkdMb6P5SGlFKUaANoCUMIgdUl/ib2/z+UhpRSlGgDaAlDCA+Fz/tjAPs/lIaUUpRoA2gJQwhBrbHjAmb5P5SGlFKUaANoCUMIKupiMEwY/T+UhpRSlGgDaAlDCCrqYjBMGP0/lIaUUpRoA2gJQwibEBhEp5r9P5SGlFKUaANoCUMIQa2x4wJm+T+UhpRSlGgDaAlDCAvPU8SXxRVAlIaUUpRoA2gJQwgLz1PEl8UVQJSGlFKUaANoCUMIC89TxJfFFUCUhpRSlGgDaAlDCOKQmdawh/o/lIaUUpRoA2gJQwglfMpxBjv1P5SGlFKUaANoCUMIJXzKcQY79T+UhpRSlGgDaAlDCPiHlExTwvQ/lIaUUpRoA2gJQwgUoyhXDIbtP5SGlFKUaANoCUMIFKMoVwyG7T+UhpRSlGgDaAlDCPQjP0Gud+w/lIaUUpRoA2gJQwj0Iz9BrnfsP5SGlFKUaANoCUMIXb0XHzW02T+UhpRSlGgDaAlDCF29Fx81tNk/lIaUUpRoA2gJQwhHwEk3YO0NQJSGlFKUaANoCUMIuWlj5c/E7T+UhpRSlGgDaAlDCLlpY+XPxO0/lIaUUpRoA2gJQwhX37IZOAnnP5SGlFKUaANoCUMIV9+yGTgJ5z+UhpRSlGgDaAlDCHYYo5//NhzAlIaUUpRoA2gJQwj93gyfBBgTQJSGlFKUZS4=

$$$$
6a pose 1
     RDKit          3D

 52 54  0  0  1  0  0  0  0  0999 V2000
   16.3900  -15.7830   23.1600 N   0  0  0  0  0  0  0  0  0  0  0  0
   17.6570  -15.0120   23.1460 C   0  0  1  0  0  0  0  0  0  0  0  0
   17.4360  -13.6310   22.5680 C   0  0  0  0  0  0  0  0  0  0  0  0
   16.5060  -12.9450   23.0320 O   0  0  0  0  0  0  0  0  0  0  0  0
   18.1720  -14.9170   24.5950 C   0  0  0  0  0  0  0  0  0  0  0  0
   19.5920  -14.3710   24.7440 C   0  0  0  0  0  0  0  0  0  0  0  0
   20.6910  -14.9640   24.0890 C   0  0  0  0  0  0  0  0  0  0  0  0
   19.8220  -13.2490   25.5510 C   0  0  0  0  0  0  0  0  0  0  0  0
   21.9860  -14.4540   24.2350 C   0  0  0  0  0  0  0  0  0  0  0  0
   21.1010  -12.7410   25.6970 C   0  0  0  0  0  0  0  0  0  0  0  0
   22.1890  -13.3330   25.0460 C   0  0  0  0  0  0  0  0  0  0  0  0
   18.2450  -13.1710   21.5890 N   0  0  0  0  0  0  0  0  0  0  0  0
   18.0280  -11.8220   21.0620 C   0  0  2  0  0  0  0  0  0  0  0  0
   16.5816  -11.6353   20.4899 C   0  0  0  0  0  0  0  0  0  0  0  0
   16.1177  -12.5078   19.7504 O   0  0  0  0  0  0  0  0  0  0  0  0
   18.9440  -11.8950   19.8030 C   0  0  0  0  0  0  0  0  0  0  0  0
   20.1040  -12.7670   20.3170 C   0  0  0  0  0  0  0  0  0  0  0  0
   19.3760  -13.9390   21.0230 C   0  0  0  0  0  0  0  0  0  0  0  0
   15.8887  -10.5441   20.8300 N   0  0  0  0  0  0  0  0  0  0  0  0
   14.5050  -10.2505   20.4326 C   0  0  0  0  0  0  0  0  0  0  0  0
   13.4488  -10.4224   21.5238 C   0  0  0  0  0  0  0  0  0  0  0  0
   13.2461   -9.3640   22.4190 C   0  0  0  0  0  0  0  0  0  0  0  0
   12.2370   -9.4157   23.3771 C   0  0  0  0  0  0  0  0  0  0  0  0
   11.3918  -10.5205   23.4336 C   0  0  0  0  0  0  0  0  0  0  0  0
   11.5823  -11.5845   22.5508 C   0  0  0  0  0  0  0  0  0  0  0  0
   12.6029  -11.5448   21.5977 C   0  0  0  0  0  0  0  0  0  0  0  0
   13.8810   -8.4917   22.3814 H   0  0  0  0  0  0  0  0  0  0  0  0
   12.0540   -8.1138   24.4925 Cl  0  0  0  0  0  0  0  0  0  0  0  0
   10.5893  -10.5525   24.1603 H   0  0  0  0  0  0  0  0  0  0  0  0
   10.9233  -12.4394   22.6005 H   0  0  0  0  0  0  0  0  0  0  0  0
   12.7454  -12.8789   20.5066 Cl  0  0  0  0  0  0  0  0  0  0  0  0
   19.0085  -12.7762   26.0701 H   0  0  0  0  0  0  0  0  0  0  0  0
   21.2507  -11.8699   26.3204 H   0  0  0  0  0  0  0  0  0  0  0  0
   22.8194  -14.9222   23.7310 H   0  0  0  0  0  0  0  0  0  0  0  0
   23.1826  -12.9251   25.1656 H   0  0  0  0  0  0  0  0  0  0  0  0
   20.5481  -15.8425   23.4755 H   0  0  0  0  0  0  0  0  0  0  0  0
   16.4851  -16.6312   23.6941 H   0  0  0  0  0  0  0  0  0  0  0  0
   15.6579  -15.2082   23.5762 H   0  0  0  0  0  0  0  0  0  0  0  0
   16.1022  -16.0209   22.2235 H   0  0  0  0  0  0  0  0  0  0  0  0
   18.3189  -15.6340   22.5429 H   0  0  0  0  0  0  0  0  0  0  0  0
   18.2021  -15.9089   25.0514 H   0  0  0  0  0  0  0  0  0  0  0  0
   17.4891  -14.3362   25.2215 H   0  0  0  0  0  0  0  0  0  0  0  0
   18.3313  -11.0520   21.7725 H   0  0  0  0  0  0  0  0  0  0  0  0
   19.2931  -10.9088   19.5162 H   0  0  0  0  0  0  0  0  0  0  0  0
   18.4772  -12.3582   18.9329 H   0  0  0  0  0  0  0  0  0  0  0  0
   20.7134  -12.2134   21.0337 H   0  0  0  0  0  0  0  0  0  0  0  0
   20.7607  -13.1043   19.5152 H   0  0  0  0  0  0  0  0  0  0  0  0
   19.0084  -14.6804   20.3159 H   0  0  0  0  0  0  0  0  0  0  0  0
   20.0380  -14.4131   21.7361 H   0  0  0  0  0  0  0  0  0  0  0  0
   16.3604   -9.8505   21.4149 H   0  0  0  0  0  0  0  0  0  0  0  0
   14.2083  -10.7995   19.5354 H   0  0  0  0  0  0  0  0  0  0  0  0
   14.4490   -9.2049   20.1403 H   0  0  0  0  0  0  0  0  0  0  0  0
  1  2  1  0
  1 37  1  0
  1 38  1  0
  1 39  1  0
  2  3  1  0
  2  5  1  0
  2 40  1  6
  3  4  2  0
  3 12  1  0
  5  6  1  0
  5 41  1  0
  5 42  1  0
  6  7  2  0
  6  8  1  0
  7  9  1  0
  7 36  1  0
  8 10  2  0
  8 32  1  0
  9 11  2  0
  9 34  1  0
 10 11  1  0
 10 33  1  0
 11 35  1  0
 12 13  1  0
 12 18  1  0
 13 14  1  0
 13 16  1  0
 13 43  1  1
 14 15  2  0
 14 19  1  0
 16 17  1  0
 16 44  1  0
 16 45  1  0
 17 18  1  0
 17 46  1  0
 17 47  1  0
 18 48  1  0
 18 49  1  0
 19 20  1  0
 19 50  1  0
 20 21  1  0
 20 51  1  0
 20 52  1  0
 21 22  2  0
 21 26  1  0
 22 23  1  0
 22 27  1  0
 23 24  2  0
 23 28  1  0
 24 25  1  0
 24 29  1  0
 25 26  2  0
 25 30  1  0
 26 31  1  0
M  CHG  1   1   1
M  END
>  <r_exp_dg>  (9) 
-9.91084

>  <experimental dG reference units>  (9) 
kcal/mol

>  <experimental dG reference field>  (9) 
r_exp_dg

>  <kJ/mol experimental dG>  (9) 
-41.466954560000005

>  <kcal/mol experimental dG>  (9) 
-9.91084

>  <AmberAM1BCCCache>  (9) 
gASVNwQAAAAAAABdlCiMFm51bXB5Ll9jb3JlLm11bHRpYXJyYXmUjAZzY2FsYXKUk5SMBW51bXB5lIwFZHR5cGWUk5SMAmY4lImIh5RSlChLA4wBPJROTk5K/////0r/////SwB0lGJDCBAoOBZhxyPAlIaUUpRoA2gJQwjPF//Cv67bP5SGlFKUaANoCUMIkv+UVDzHHkCUhpRSlGgDaAlDCIGvoG2khRjAlIaUUpRoA2gJQwiazZFCUGPlv5SGlFKUaANoCUMIMpGPByRn/L+UhpRSlGgDaAlDCLc25Zea4vm/lIaUUpRoA2gJQwi3NuWXmuL5v5SGlFKUaANoCUMIX+ApKDEp9b+UhpRSlGgDaAlDCF/gKSgxKfW/lIaUUpRoA2gJQwhFRJOt6Dfzv5SGlFKUaANoCUMIhgpOAkHkFMCUhpRSlGgDaAlDCCrg1PJBptE/lIaUUpRoA2gJQwgta9m0IJIeQJSGlFKUaANoCUMIbIGisaFxHsCUhpRSlGgDaAlDCLbvTasFd/C/lIaUUpRoA2gJQwj7CUBqhjvvv5SGlFKUaANoCUMIcjdeRIdr6z+UhpRSlGgDaAlDCH23oSd8ORnAlIaUUpRoA2gJQwiYooXF06r4P5SGlFKUaANoCUMI4EQoBYE89b+UhpRSlGgDaAlDCAQSFL9ALvO/lIaUUpRoA2gJQwgCSqH0eK7HP5SGlFKUaANoCUMILj1NKlSA87+UhpRSlGgDaAlDCDW18Lwd1/S/lIaUUpRoA2gJQwhx61AeEnTLP5SGlFKUaANoCUMI7SKZimLC/T+UhpRSlGgDaAlDCCBcMQ4I6um/lIaUUpRoA2gJQwis1sO6RML+P5SGlFKUaANoCUMIpQ3HAKWb/j+UhpRSlGgDaAlDCNGlOgfEXvG/lIaUUpRoA2gJQwgBKpZ0tGT5P5SGlFKUaANoCUMIvWVmqw8j/T+UhpRSlGgDaAlDCL1lZqsPI/0/lIaUUpRoA2gJQwjpWZzQwpv9P5SGlFKUaANoCUMIASqWdLRk+T+UhpRSlGgDaAlDCMYNS3SM0xVAlIaUUpRoA2gJQwjGDUt0jNMVQJSGlFKUaANoCUMIxg1LdIzTFUCUhpRSlGgDaAlDCOQVpQDlMfo/lIaUUpRoA2gJQwjqzlatktv0P5SGlFKUaANoCUMI6s5WrZLb9D+UhpRSlGgDaAlDCMVsGvwesPQ/lIaUUpRoA2gJQwjWl20ht7PtP5SGlFKUaANoCUMI1pdtIbez7T+UhpRSlGgDaAlDCMtWzdRNNuw/lIaUUpRoA2gJQwjLVs3UTTbsP5SGlFKUaANoCUMIvvML20AU2z+UhpRSlGgDaAlDCL7zC9tAFNs/lIaUUpRoA2gJQwgy01y1+qIOQJSGlFKUaANoCUMIT0YcT4EY8D+UhpRSlGgDaAlDCE9GHE+BGPA/lIaUUpRlLg==

$$$$
5
     RDKit          3D

 52 54  0  0  1  0  0  0  0  0999 V2000
   16.3900  -15.7830   23.1600 N   0  0  0  0  0  0  0  0  0  0  0  0
   17.6570  -15.0120   23.1460 C   0  0  1  0  0  0  0  0  0  0  0  0
   17.4360  -13.6310   22.5680 C   0  0  0  0  0  0  0  0  0  0  0  0
   16.5060  -12.9450   23.0320 O   0  0  0  0  0  0  0  0  0  0  0  0
   18.1720  -14.9170   24.5950 C   0  0  0  0  0  0  0  0  0  0  0  0
   19.5920  -14.3710   24.7440 C   0  0  0  0  0  0  0  0  0  0  0  0
   20.6910  -14.9640   24.0890 C   0  0  0  0  0  0  0  0  0  0  0  0
   19.8220  -13.2490   25.5510 C   0  0  0  0  0  0  0  0  0  0  0  0
   21.9860  -14.4540   24.2350 C   0  0  0  0  0  0  0  0  0  0  0  0
   21.1010  -12.7410   25.6970 C   0  0  0  0  0  0  0  0  0  0  0  0
   22.1890  -13.3330   25.0460 C   0  0  0  0  0  0  0  0  0  0  0  0
   18.2450  -13.1710   21.5890 N   0  0  0  0  0  0  0  0  0  0  0  0
   18.0280  -11.8220   21.0620 C   0  0  2  0  0  0  0  0  0  0  0  0
   16.5897  -11.6160   20.4934 C   0  0  0  0  0  0  0  0  0  0  0  0
   16.0825  -12.5040   19.8005 O   0  0  0  0  0  0  0  0  0  0  0  0
   18.9440  -11.8950   19.8030 C   0  0  0  0  0  0  0  0  0  0  0  0
   20.1040  -12.7670   20.3170 C   0  0  0  0  0  0  0  0  0  0  0  0
   19.3760  -13.9390   21.0230 C   0  0  0  0  0  0  0  0  0  0  0  0
   15.9629  -10.4730   20.7755 N   0  0  0  0  0  0  0  0  0  0  0  0
   14.5910  -10.1337   20.3967 C   0  0  0  0  0  0  0  0  0  0  0  0
   13.5047  -10.6726   21.3181 C   0  0  0  0  0  0  0  0  0  0  0  0
   12.9133   -9.8291   22.2646 C   0  0  0  0  0  0  0  0  0  0  0  0
   11.8460  -10.2859   23.0326 C   0  0  0  0  0  0  0  0  0  0  0  0
   11.3711  -11.5821   22.8501 C   0  0  0  0  0  0  0  0  0  0  0  0
   11.9590  -12.4301   21.9148 C   0  0  0  0  0  0  0  0  0  0  0  0
   13.0222  -11.9728   21.1424 C   0  0  0  0  0  0  0  0  0  0  0  0
   13.2696   -8.8176   22.4006 H   0  0  0  0  0  0  0  0  0  0  0  0
   11.3792   -9.6404   23.7640 H   0  0  0  0  0  0  0  0  0  0  0  0
   10.5341  -11.9331   23.4405 H   0  0  0  0  0  0  0  0  0  0  0  0
   11.5826  -13.4357   21.7892 H   0  0  0  0  0  0  0  0  0  0  0  0
   13.4683  -12.6249   20.4044 H   0  0  0  0  0  0  0  0  0  0  0  0
   19.0084  -12.7762   26.0699 H   0  0  0  0  0  0  0  0  0  0  0  0
   21.2508  -11.8699   26.3204 H   0  0  0  0  0  0  0  0  0  0  0  0
   22.8194  -14.9221   23.7310 H   0  0  0  0  0  0  0  0  0  0  0  0
   23.1826  -12.9251   25.1656 H   0  0  0  0  0  0  0  0  0  0  0  0
   20.5480  -15.8424   23.4754 H   0  0  0  0  0  0  0  0  0  0  0  0
   16.4840  -16.6298   23.6964 H   0  0  0  0  0  0  0  0  0  0  0  0
   15.6579  -15.2064   23.5743 H   0  0  0  0  0  0  0  0  0  0  0  0
   16.1030  -16.0227   22.2239 H   0  0  0  0  0  0  0  0  0  0  0  0
   18.3187  -15.6340   22.5428 H   0  0  0  0  0  0  0  0  0  0  0  0
   18.2019  -15.9089   25.0515 H   0  0  0  0  0  0  0  0  0  0  0  0
   17.4890  -14.3360   25.2212 H   0  0  0  0  0  0  0  0  0  0  0  0
   18.3386  -11.0559   21.7737 H   0  0  0  0  0  0  0  0  0  0  0  0
   19.2925  -10.9089   19.5150 H   0  0  0  0  0  0  0  0  0  0  0  0
   18.4723  -12.3586   18.9355 H   0  0  0  0  0  0  0  0  0  0  0  0
   20.7135  -12.2134   21.0336 H   0  0  0  0  0  0  0  0  0  0  0  0
   20.7606  -13.1044   19.5152 H   0  0  0  0  0  0  0  0  0  0  0  0
   19.0084  -14.6805   20.3160 H   0  0  0  0  0  0  0  0  0  0  0  0
   20.0379  -14.4131   21.7363 H   0  0  0  0  0  0  0  0  0  0  0  0
   16.4639   -9.7821   21.3406 H   0  0  0  0  0  0  0  0  0  0  0  0
   14.3783  -10.4735   19.3797 H   0  0  0  0  0  0  0  0  0  0  0  0
   14.5079   -9.0463   20.3766 H   0  0  0  0  0  0  0  0  0  0  0  0
  1  2  1  0
  1 37  1  0
  1 38  1  0
  1 39  1  0
  2  3  1  0
  2  5  1  0
  2 40  1  6
  3  4  2  0
  3 12  1  0
  5  6  1  0
  5 41  1  0
  5 42  1  0
  6  7  2  0
  6  8  1  0
  7  9  1  0
  7 36  1  0
  8 10  2  0
  8 32  1  0
  9 11  2  0
  9 34  1  0
 10 11  1  0
 10 33  1  0
 11 35  1  0
 12 13  1  0
 12 18  1  0
 13 14  1  0
 13 16  1  0
 13 43  1  1
 14 15  2  0
 14 19  1  0
 16 17  1  0
 16 44  1  0
 16 45  1  0
 17 18  1  0
 17 46  1  0
 17 47  1  0
 18 48  1  0
 18 49  1  0
 19 20  1  0
 19 50  1  0
 20 21  1  0
 20 51  1  0
 20 52  1  0
 21 22  2  0
 21 26  1  0
 22 23  1  0
 22 27  1  0
 23 24  2  0
 23 28  1  0
 24 25  1  0
 24 29  1  0
 25 26  2  0
 25 30  1  0
 26 31  1  0
M  CHG  1   1   1
M  END
>  <r_exp_dg>  (10) 
-6.79363

>  <experimental dG reference units>  (10) 
kcal/mol

>  <experimental dG reference field>  (10) 
r_exp_dg

>  <kJ/mol experimental dG>  (10) 
-28.424547920000002

>  <kcal/mol experimental dG>  (10) 
-6.79363

>  <AmberAM1BCCCache>  (10) 
gASVNwQAAAAAAABdlCiMFm51bXB5Ll9jb3JlLm11bHRpYXJyYXmUjAZzY2FsYXKUk5SMBW51bXB5lIwFZHR5cGWUk5SMAmY4lImIh5RSlChLA4wBPJROTk5K/////0r/////SwB0lGJDCCwsWsK7yiPAlIaUUpRoA2gJQwhCOcgQi8/aP5SGlFKUaANoCUMIFBGB/lG/HkCUhpRSlGgDaAlDCMBWiSrUVBjAlIaUUpRoA2gJQwjYqrMnq4Xlv5SGlFKUaANoCUMI7U9jt4VW/L+UhpRSlGgDaAlDCFYldgrI8/m/lIaUUpRoA2gJQwhWJXYKyPP5v5SGlFKUaANoCUMI3TV7o4o19b+UhpRSlGgDaAlDCN01e6OKNfW/lIaUUpRoA2gJQwiDZ2U6mjrzv5SGlFKUaANoCUMINfpCbhngFMCUhpRSlGgDaAlDCP07bJu+Ss8/lIaUUpRoA2gJQwgqGMeB5nYeQJSGlFKUaANoCUMI/MKre5M5HsCUhpRSlGgDaAlDCPQSIDi3efC/lIaUUpRoA2gJQwgwVWjboRDvv5SGlFKUaANoCUMI5szGQqXL6j+UhpRSlGgDaAlDCP2ltX1mQRnAlIaUUpRoA2gJQwiUHzmzimT4P5SGlFKUaANoCUMIC6Wr3nvx+L+UhpRSlGgDaAlDCNkbJcIUP/a/lIaUUpRoA2gJQwgF9gQGUsH3v5SGlFKUaANoCUMIgDO5d65N9b+UhpRSlGgDaAlDCAX2BAZSwfe/lIaUUpRoA2gJQwjZGyXCFD/2v5SGlFKUaANoCUMI6j6oQ1Ev+T+UhpRSlGgDaAlDCHQbSrNqmfo/lIaUUpRoA2gJQwj/EUIE+vn6P5SGlFKUaANoCUMIdBtKs2qZ+j+UhpRSlGgDaAlDCOo+qENRL/k/lIaUUpRoA2gJQwgzOiTsmF/5P5SGlFKUaANoCUMIoNvTFTIl/T+UhpRSlGgDaAlDCKDb0xUyJf0/lIaUUpRoA2gJQwjNzwk75Z39P5SGlFKUaANoCUMIMzok7Jhf+T+UhpRSlGgDaAlDCMF1B1FiwhVAlIaUUpRoA2gJQwjBdQdRYsIVQJSGlFKUaANoCUMIwXUHUWLCFUCUhpRSlGgDaAlDCBRQi83uivo/lIaUUpRoA2gJQwjW1r2L9Cr1P5SGlFKUaANoCUMI1ta9i/Qq9T+UhpRSlGgDaAlDCGPnC775gfQ/lIaUUpRoA2gJQwg574xW4ILtP5SGlFKUaANoCUMIOe+MVuCC7T+UhpRSlGgDaAlDCFEQKbvqMOw/lIaUUpRoA2gJQwhRECm76jDsP5SGlFKUaANoCUMIHCjlhu1z2T+UhpRSlGgDaAlDCBwo5Ybtc9k/lIaUUpRoA2gJQwhubGIuafENQJSGlFKUaANoCUMI8vMQrphS7T+UhpRSlGgDaAlDCPLzEK6YUu0/lIaUUpRlLg==

$$$$
1c pose 2
     RDKit          3D

 52 54  0  0  1  0  0  0  0  0999 V2000
   16.3900  -15.7830   23.1600 N   0  0  0  0  0  0  0  0  0  0  0  0
   17.6570  -15.0120   23.1460 C   0  0  1  0  0  0  0  0  0  0  0  0
   17.4360  -13.6310   22.5680 C   0  0  0  0  0  0  0  0  0  0  0  0
   16.5060  -12.9450   23.0320 O   0  0  0  0  0  0  0  0  0  0  0  0
   18.1720  -14.9170   24.5950 C   0  0  0  0  0  0  0  0  0  0  0  0
   19.5920  -14.3710   24.7440 C   0  0  0  0  0  0  0  0  0  0  0  0
   20.6910  -14.9640   24.0890 C   0  0  0  0  0  0  0  0  0  0  0  0
   19.8220  -13.2490   25.5510 C   0  0  0  0  0  0  0  0  0  0  0  0
   21.9860  -14.4540   24.2350 C   0  0  0  0  0  0  0  0  0  0  0  0
   21.1010  -12.7410   25.6970 C   0  0  0  0  0  0  0  0  0  0  0  0
   22.1890  -13.3330   25.0460 C   0  0  0  0  0  0  0  0  0  0  0  0
   18.2450  -13.1710   21.5890 N   0  0  0  0  0  0  0  0  0  0  0  0
   18.0280  -11.8220   21.0620 C   0  0  2  0  0  0  0  0  0  0  0  0
   16.5818  -11.6263   20.4982 C   0  0  0  0  0  0  0  0  0  0  0  0
   16.0829  -12.5159   19.8015 O   0  0  0  0  0  0  0  0  0  0  0  0
   18.9440  -11.8950   19.8030 C   0  0  0  0  0  0  0  0  0  0  0  0
   20.1040  -12.7670   20.3170 C   0  0  0  0  0  0  0  0  0  0  0  0
   19.3760  -13.9390   21.0230 C   0  0  0  0  0  0  0  0  0  0  0  0
   15.9269  -10.5033   20.8007 N   0  0  0  0  0  0  0  0  0  0  0  0
   14.5480  -10.1930   20.4138 C   0  0  0  0  0  0  0  0  0  0  0  0
   13.5042  -10.3858   21.5029 C   0  0  0  0  0  0  0  0  0  0  0  0
   13.2669   -9.3512   22.4123 C   0  0  0  0  0  0  0  0  0  0  0  0
   12.2403   -9.4461   23.3462 C   0  0  0  0  0  0  0  0  0  0  0  0
   11.4174  -10.5716   23.3630 C   0  0  0  0  0  0  0  0  0  0  0  0
   11.6484  -11.6137   22.4616 C   0  0  0  0  0  0  0  0  0  0  0  0
   12.6888  -11.5228   21.5329 C   0  0  0  0  0  0  0  0  0  0  0  0
   13.8830   -8.4653   22.4021 H   0  0  0  0  0  0  0  0  0  0  0  0
   12.0992   -8.6448   24.0564 H   0  0  0  0  0  0  0  0  0  0  0  0
   10.6031  -10.6366   24.0745 H   0  0  0  0  0  0  0  0  0  0  0  0
   10.5339  -13.1397   22.4974 Br  0  0  0  0  0  0  0  0  0  0  0  0
   12.8478  -12.3270   20.8276 H   0  0  0  0  0  0  0  0  0  0  0  0
   19.0085  -12.7762   26.0700 H   0  0  0  0  0  0  0  0  0  0  0  0
   21.2508  -11.8699   26.3204 H   0  0  0  0  0  0  0  0  0  0  0  0
   22.8195  -14.9222   23.7310 H   0  0  0  0  0  0  0  0  0  0  0  0
   23.1826  -12.9251   25.1656 H   0  0  0  0  0  0  0  0  0  0  0  0
   20.5480  -15.8425   23.4754 H   0  0  0  0  0  0  0  0  0  0  0  0
   16.4852  -16.6310   23.6945 H   0  0  0  0  0  0  0  0  0  0  0  0
   15.6579  -15.2083   23.5763 H   0  0  0  0  0  0  0  0  0  0  0  0
   16.1022  -16.0218   22.2238 H   0  0  0  0  0  0  0  0  0  0  0  0
   18.3189  -15.6340   22.5429 H   0  0  0  0  0  0  0  0  0  0  0  0
   18.2021  -15.9089   25.0514 H   0  0  0  0  0  0  0  0  0  0  0  0
   17.4891  -14.3361   25.2215 H   0  0  0  0  0  0  0  0  0  0  0  0
   18.3359  -11.0546   21.7734 H   0  0  0  0  0  0  0  0  0  0  0  0
   19.2926  -10.9089   19.5150 H   0  0  0  0  0  0  0  0  0  0  0  0
   18.4714  -12.3581   18.9358 H   0  0  0  0  0  0  0  0  0  0  0  0
   20.7136  -12.2134   21.0336 H   0  0  0  0  0  0  0  0  0  0  0  0
   20.7607  -13.1044   19.5152 H   0  0  0  0  0  0  0  0  0  0  0  0
   19.0086  -14.6806   20.3160 H   0  0  0  0  0  0  0  0  0  0  0  0
   20.0380  -14.4130   21.7362 H   0  0  0  0  0  0  0  0  0  0  0  0
   16.4136   -9.8083   21.3724 H   0  0  0  0  0  0  0  0  0  0  0  0
   14.2407  -10.7291   19.5117 H   0  0  0  0  0  0  0  0  0  0  0  0
   14.5035   -9.1356   20.1663 H   0  0  0  0  0  0  0  0  0  0  0  0
  1  2  1  0
  1 37  1  0
  1 38  1  0
  1 39  1  0
  2  3  1  0
  2  5  1  0
  2 40  1  6
  3  4  2  0
  3 12  1  0
  5  6  1  0
  5 41  1  0
  5 42  1  0
  6  7  2  0
  6  8  1  0
  7  9  1  0
  7 36  1  0
  8 10  2  0
  8 32  1  0
  9 11  2  0
  9 34  1  0
 10 11  1  0
 10 33  1  0
 11 35  1  0
 12 13  1  0
 12 18  1  0
 13 14  1  0
 13 16  1  0
 13 43  1  1
 14 15  2  0
 14 19  1  0
 16 17  1  0
 16 44  1  0
 16 45  1  0
 17 18  1  0
 17 46  1  0
 17 47  1  0
 18 48  1  0
 18 49  1  0
 19 20  1  0
 19 50  1  0
 20 21  1  0
 20 51  1  0
 20 52  1  0
 21 22  2  0
 21 26  1  0
 22 23  1  0
 22 27  1  0
 23 24  2  0
 23 28  1  0
 24 25  1  0
 24 29  1  0
 25 26  2  0
 25 30  1  0
 26 31  1  0
M  CHG  1   1   1
M  END
>  <r_exp_dg>  (11) 
-8.57962

>  <experimental dG reference units>  (11) 
kcal/mol

>  <experimental dG reference field>  (11) 
r_exp_dg

>  <kJ/mol experimental dG>  (11) 
-35.897130080000004

>  <kcal/mol experimental dG>  (11) 
-8.57962

>  <AmberAM1BCCCache>  (11) 
gASVNwQAAAAAAABdlCiMFm51bXB5Ll9jb3JlLm11bHRpYXJyYXmUjAZzY2FsYXKUk5SMBW51bXB5lIwFZHR5cGWUk5SMAmY4lImIh5RSlChLA4wBPJROTk5K/////0r/////SwB0lGJDCDtclQmZyCPAlIaUUpRoA2gJQwhAW1URYa7bP5SGlFKUaANoCUMIE0pKZ2vIHkCUhpRSlGgDaAlDCFD/C2g3fRjAlIaUUpRoA2gJQwjiq2abf2Plv5SGlFKUaANoCUMIVwD6sztn/L+UhpRSlGgDaAlDCNylT0Sy4vm/lIaUUpRoA2gJQwjcpU9EsuL5v5SGlFKUaANoCUMIg0+U1Egp9b+UhpRSlGgDaAlDCINPlNRIKfW/lIaUUpRoA2gJQwhps/1ZADjzv5SGlFKUaANoCUMIuCV44k/qFMCUhpRSlGgDaAlDCA1kNja0HtE/lIaUUpRoA2gJQwhzN2DoNIEeQJSGlFKUaANoCUMIrQRusMpmHsCUhpRSlGgDaAlDCGGMs+4MsfC/lIaUUpRoA2gJQwhC6BTDtTvvv5SGlFKUaANoCUMI5V0NQxA76z+UhpRSlGgDaAlDCCW6fBuuNBnAlIaUUpRoA2gJQwgTaFwzQJz4P5SGlFKUaANoCUMI1CABwa0Q+b+UhpRSlGgDaAlDCCS4gbG4B/O/lIaUUpRoA2gJQwgP29wcjMP3v5SGlFKUaANoCUMIvI51GumY8L+UhpRSlGgDaAlDCHJWfyLEaNa/lIaUUpRoA2gJQwhXjwpygZ3yv5SGlFKUaANoCUMIjM+xkwSc+j+UhpRSlGgDaAlDCPcSFAxKAfw/lIaUUpRoA2gJQwhjH3M+L439P5SGlFKUaANoCUMIqgHWTJMt7L+UhpRSlGgDaAlDCDVFk/rxCvw/lIaUUpRoA2gJQwjcuivInGT5P5SGlFKUaANoCUMImPb7/vci/T+UhpRSlGgDaAlDCJj2+/73Iv0/lIaUUpRoA2gJQwjF6jEkq5v9P5SGlFKUaANoCUMI3LoryJxk+T+UhpRSlGgDaAlDCDePzRwi1RVAlIaUUpRoA2gJQwg3j80cItUVQJSGlFKUaANoCUMIN4/NHCLVFUCUhpRSlGgDaAlDCL+mOlTNMfo/lIaUUpRoA2gJQwhXLIz85N30P5SGlFKUaANoCUMIVyyM/OTd9D+UhpRSlGgDaAlDCAiSa+8i5fQ/lIaUUpRoA2gJQwgIjJ0xmHntP5SGlFKUaANoCUMICIydMZh57T+UhpRSlGgDaAlDCA9v8Mytluw/lIaUUpRoA2gJQwgPb/DMrZbsP5SGlFKUaANoCUMI+JbcrnlX2z+UhpRSlGgDaAlDCPiW3K55V9s/lIaUUpRoA2gJQwj7qpT7BQYOQJSGlFKUaANoCUMI4Q8Ln65X7j+UhpRSlGgDaAlDCOEPC5+uV+4/lIaUUpRlLg==

$$$$
2a pose 2
     RDKit          3D

 55 57  0  0  1  0  0  0  0  0999 V2000
   16.3900  -15.7830   23.1600 N   0  0  0  0  0  0  0  0  0  0  0  0
   17.6570  -15.0120   23.1460 C   0  0  1  0  0  0  0  0  0  0  0  0
   17.4360  -13.6310   22.5680 C   0  0  0  0  0  0  0  0  0  0  0  0
   16.5060  -12.9450   23.0320 O   0  0  0  0  0  0  0  0  0  0  0  0
   18.1720  -14.9170   24.5950 C   0  0  0  0  0  0  0  0  0  0  0  0
   19.5920  -14.3710   24.7440 C   0  0  0  0  0  0  0  0  0  0  0  0
   20.6910  -14.9640   24.0890 C   0  0  0  0  0  0  0  0  0  0  0  0
   19.8220  -13.2490   25.5510 C   0  0  0  0  0  0  0  0  0  0  0  0
   21.9860  -14.4540   24.2350 C   0  0  0  0  0  0  0  0  0  0  0  0
   21.1010  -12.7410   25.6970 C   0  0  0  0  0  0  0  0  0  0  0  0
   22.1890  -13.3330   25.0460 C   0  0  0  0  0  0  0  0  0  0  0  0
   18.2450  -13.1710   21.5890 N   0  0  0  0  0  0  0  0  0  0  0  0
   18.0280  -11.8220   21.0620 C   0  0  2  0  0  0  0  0  0  0  0  0
   16.5844  -11.6366   20.4920 C   0  0  0  0  0  0  0  0  0  0  0  0
   16.0936  -12.5326   19.7974 O   0  0  0  0  0  0  0  0  0  0  0  0
   18.9440  -11.8950   19.8030 C   0  0  0  0  0  0  0  0  0  0  0  0
   20.1040  -12.7670   20.3170 C   0  0  0  0  0  0  0  0  0  0  0  0
   19.3760  -13.9390   21.0230 C   0  0  0  0  0  0  0  0  0  0  0  0
   15.9216  -10.5167   20.7857 N   0  0  0  0  0  0  0  0  0  0  0  0
   14.5421  -10.2284   20.3862 C   0  0  0  0  0  0  0  0  0  0  0  0
   13.5006  -10.4150   21.4755 C   0  0  0  0  0  0  0  0  0  0  0  0
   13.2723   -9.3731   22.3762 C   0  0  0  0  0  0  0  0  0  0  0  0
   12.2471   -9.4550   23.3107 C   0  0  0  0  0  0  0  0  0  0  0  0
   11.4189  -10.5766   23.3417 C   0  0  0  0  0  0  0  0  0  0  0  0
   11.6435  -11.6276   22.4488 C   0  0  0  0  0  0  0  0  0  0  0  0
   12.6814  -11.5488   21.5160 C   0  0  0  0  0  0  0  0  0  0  0  0
   13.8938   -8.4908   22.3557 H   0  0  0  0  0  0  0  0  0  0  0  0
   12.1176   -8.6400   24.0074 H   0  0  0  0  0  0  0  0  0  0  0  0
   10.6057  -10.6321   24.0554 H   0  0  0  0  0  0  0  0  0  0  0  0
   10.7410  -12.8524   22.4902 C   0  0  0  0  0  0  0  0  0  0  0  0
   12.8351  -12.3588   20.8164 H   0  0  0  0  0  0  0  0  0  0  0  0
   19.0085  -12.7762   26.0700 H   0  0  0  0  0  0  0  0  0  0  0  0
   21.2507  -11.8699   26.3204 H   0  0  0  0  0  0  0  0  0  0  0  0
   22.8194  -14.9222   23.7310 H   0  0  0  0  0  0  0  0  0  0  0  0
   23.1826  -12.9251   25.1656 H   0  0  0  0  0  0  0  0  0  0  0  0
   20.5480  -15.8425   23.4754 H   0  0  0  0  0  0  0  0  0  0  0  0
   16.4851  -16.6309   23.6946 H   0  0  0  0  0  0  0  0  0  0  0  0
   15.6579  -15.2082   23.5761 H   0  0  0  0  0  0  0  0  0  0  0  0
   16.1023  -16.0218   22.2238 H   0  0  0  0  0  0  0  0  0  0  0  0
   18.3189  -15.6340   22.5429 H   0  0  0  0  0  0  0  0  0  0  0  0
   18.2020  -15.9089   25.0514 H   0  0  0  0  0  0  0  0  0  0  0  0
   17.4891  -14.3361   25.2215 H   0  0  0  0  0  0  0  0  0  0  0  0
   18.3314  -11.0523   21.7729 H   0  0  0  0  0  0  0  0  0  0  0  0
   19.2928  -10.9088   19.5155 H   0  0  0  0  0  0  0  0  0  0  0  0
   18.4736  -12.3581   18.9346 H   0  0  0  0  0  0  0  0  0  0  0  0
   20.7135  -12.2134   21.0336 H   0  0  0  0  0  0  0  0  0  0  0  0
   20.7607  -13.1043   19.5153 H   0  0  0  0  0  0  0  0  0  0  0  0
   19.0086  -14.6805   20.3159 H   0  0  0  0  0  0  0  0  0  0  0  0
   20.0380  -14.4130   21.7362 H   0  0  0  0  0  0  0  0  0  0  0  0
   16.3977   -9.8156   21.3583 H   0  0  0  0  0  0  0  0  0  0  0  0
   14.2419  -10.7792   19.4905 H   0  0  0  0  0  0  0  0  0  0  0  0
   14.4837   -9.1753   20.1263 H   0  0  0  0  0  0  0  0  0  0  0  0
   11.1448  -13.7549   21.5275 F   0  0  0  0  0  0  0  0  0  0  0  0
   10.8216  -13.4421   23.7353 F   0  0  0  0  0  0  0  0  0  0  0  0
    9.4372  -12.4724   22.2455 F   0  0  0  0  0  0  0  0  0  0  0  0
  1  2  1  0
  1 37  1  0
  1 38  1  0
  1 39  1  0
  2  3  1  0
  2  5  1  0
  2 40  1  6
  3  4  2  0
  3 12  1  0
  5  6  1  0
  5 41  1  0
  5 42  1  0
  6  7  2  0
  6  8  1  0
  7  9  1  0
  7 36  1  0
  8 10  2  0
  8 32  1  0
  9 11  2  0
  9 34  1  0
 10 11  1  0
 10 33  1  0
 11 35  1  0
 12 13  1  0
 12 18  1  0
 13 14  1  0
 13 16  1  0
 13 43  1  1
 14 15  2  0
 14 19  1  0
 16 17  1  0
 16 44  1  0
 16 45  1  0
 17 18  1  0
 17 46  1  0
 17 47  1  0
 18 48  1  0
 18 49  1  0
 19 20  1  0
 19 50  1  0
 20 21  1  0
 20 51  1  0
 20 52  1  0
 21 22  2  0
 21 26  1  0
 22 23  1  0
 22 27  1  0
 23 24  2  0
 23 28  1  0
 24 25  1  0
 24 29  1  0
 25 26  2  0
 25 30  1  0
 26 31  1  0
 30 53  1  0
 30 54  1  0
 30 55  1  0
M  CHG  1   1   1
M  END
>  <r_exp_dg>  (12) 
-6.61648

>  <experimental dG reference units>  (12) 
kcal/mol

>  <experimental dG reference field>  (12) 
r_exp_dg

>  <kJ/mol experimental dG>  (12) 
-27.68335232

>  <kcal/mol experimental dG>  (12) 
-6.61648

>  <AmberAM1BCCCache>  (12) 
gASVcAQAAAAAAABdlCiMFm51bXB5Ll9jb3JlLm11bHRpYXJyYXmUjAZzY2FsYXKUk5SMBW51bXB5lIwFZHR5cGWUk5SMAmY4lImIh5RSlChLA4wBPJROTk5K/////0r/////SwB0lGJDCEq/MYSfvSPAlIaUUpRoA2gJQwiAVL/rcIHdP5SGlFKUaANoCUMIP2rhb5PfHkCUhpRSlGgDaAlDCNki/bb/whjAlIaUUpRoA2gJQwhT0ySWdhTlv5SGlFKUaANoCUMIuKOQeRql/L+UhpRSlGgDaAlDCPWEbaepyfm/lIaUUpRoA2gJQwj1hG2nqcn5v5SGlFKUaANoCUMIMsRO7Uk59b+UhpRSlGgDaAlDCDLETu1JOfW/lIaUUpRoA2gJQwgCLh3gpwvzv5SGlFKUaANoCUMIDmrftnfmFMCUhpRSlGgDaAlDCMcvpXnUt9I/lIaUUpRoA2gJQwgx7ZOmZsEeQJSGlFKUaANoCUMI4LeWR/YRH8CUhpRSlGgDaAlDCGCbjhTQufC/lIaUUpRoA2gJQwiJykNxI6Tvv5SGlFKUaANoCUMIQF/Gh1D06z+UhpRSlGgDaAlDCN3JotVRPxnAlIaUUpRoA2gJQwi4Vr/hoKv4P5SGlFKUaANoCUMIKmmhWK3a+L+UhpRSlGgDaAlDCANmRZTTkO+/lIaUUpRoA2gJQwg53u1nAkX4v5SGlFKUaANoCUMISaLPVv8T6b+UhpRSlGgDaAlDCA2PU0f1gv+/lIaUUpRoA2gJQwiltNyPzXjuv5SGlFKUaANoCUMICkKCr3uJ+z+UhpRSlGgDaAlDCJYeJB+V8/w/lIaUUpRoA2gJQwgnjb8C7qr+P5SGlFKUaANoCUMInSHwTvE2IECUhpRSlGgDaAlDCNSh/DQTzfs/lIaUUpRoA2gJQwiBqY52/XP5P5SGlFKUaANoCUMIzbH+qMI0/T+UhpRSlGgDaAlDCM2x/qjCNP0/lIaUUpRoA2gJQwjsPZOvW779P5SGlFKUaANoCUMIgamOdv1z+T+UhpRSlGgDaAlDCMXGWJfr8RVAlIaUUpRoA2gJQwjFxliX6/EVQJSGlFKUaANoCUMIxcZYl+vxFUCUhpRSlGgDaAlDCEcWtOzPMvk/lIaUUpRoA2gJQwgKkDu6mlf0P5SGlFKUaANoCUMICpA7uppX9D+UhpRSlGgDaAlDCJCwi2BPFvU/lIaUUpRoA2gJQwjnC6s0njztP5SGlFKUaANoCUMI5wurNJ487T+UhpRSlGgDaAlDCPWA90Pzpuw/lIaUUpRoA2gJQwj1gPdD86bsP5SGlFKUaANoCUMIzuE0CPj+3T+UhpRSlGgDaAlDCM7hNAj4/t0/lIaUUpRoA2gJQwhoHGHlD0oOQJSGlFKUaANoCUMIOEjHKU/q7j+UhpRSlGgDaAlDCDhIxylP6u4/lIaUUpRoA2gJQwiVF5jfMwkGwJSGlFKUaANoCUMIlReY3zMJBsCUhpRSlGgDaAlDCJUXmN8zCQbAlIaUUpRlLg==

$$$$
7a pose 2
     RDKit          3D

 58 60  0  0  1  0  0  0  0  0999 V2000
   16.3900  -15.7830   23.1600 N   0  0  0  0  0  0  0  0  0  0  0  0
   17.6570  -15.0120   23.1460 C   0  0  1  0  0  0  0  0  0  0  0  0
   17.4360  -13.6310   22.5680 C   0  0  0  0  0  0  0  0  0  0  0  0
   16.5060  -12.9450   23.0320 O   0  0  0  0  0  0  0  0  0  0  0  0
   18.1720  -14.9170   24.5950 C   0  0  0  0  0  0  0  0  0  0  0  0
   19.5920  -14.3710   24.7440 C   0  0  0  0  0  0  0  0  0  0  0  0
   20.6910  -14.9640   24.0890 C   0  0  0  0  0  0  0  0  0  0  0  0
   19.8220  -13.2490   25.5510 C   0  0  0  0  0  0  0  0  0  0  0  0
   21.9860  -14.4540   24.2350 C   0  0  0  0  0  0  0  0  0  0  0  0
   21.1010  -12.7410   25.6970 C   0  0  0  0  0  0  0  0  0  0  0  0
   22.1890  -13.3330   25.0460 C   0  0  0  0  0  0  0  0  0  0  0  0
   18.2450  -13.1710   21.5890 N   0  0  0  0  0  0  0  0  0  0  0  0
   18.0280  -11.8220   21.0620 C   0  0  2  0  0  0  0  0  0  0  0  0
   16.5810  -11.6382   20.4904 C   0  0  0  0  0  0  0  0  0  0  0  0
   16.1156  -12.5162   19.7566 O   0  0  0  0  0  0  0  0  0  0  0  0
   18.9440  -11.8950   19.8030 C   0  0  0  0  0  0  0  0  0  0  0  0
   20.1040  -12.7670   20.3170 C   0  0  0  0  0  0  0  0  0  0  0  0
   19.3760  -13.9390   21.0230 C   0  0  0  0  0  0  0  0  0  0  0  0
   15.8847  -10.5489   20.8284 N   0  0  0  0  0  0  0  0  0  0  0  0
   14.4957  -10.2731   20.4380 C   0  0  0  0  0  0  0  0  0  0  0  0
   13.4605  -10.3645   21.5591 C   0  0  0  0  0  0  0  0  0  0  0  0
   13.3169   -9.2616   22.4088 C   0  0  0  0  0  0  0  0  0  0  0  0
   12.3354   -9.2310   23.3983 C   0  0  0  0  0  0  0  0  0  0  0  0
   11.4452  -10.2981   23.5103 C   0  0  0  0  0  0  0  0  0  0  0  0
   11.5715  -11.4037   22.6691 C   0  0  0  0  0  0  0  0  0  0  0  0
   12.5800  -11.4542   21.7000 C   0  0  0  0  0  0  0  0  0  0  0  0
   14.2840   -8.0713   22.2698 C   0  0  0  0  0  0  0  0  0  0  0  0
   12.2932   -8.4072   24.0954 H   0  0  0  0  0  0  0  0  0  0  0  0
   10.6624  -10.2830   24.2592 H   0  0  0  0  0  0  0  0  0  0  0  0
   10.5845  -12.5743   22.8337 C   0  0  0  0  0  0  0  0  0  0  0  0
   12.6611  -12.3349   21.0803 H   0  0  0  0  0  0  0  0  0  0  0  0
   19.0085  -12.7761   26.0699 H   0  0  0  0  0  0  0  0  0  0  0  0
   21.2508  -11.8700   26.3204 H   0  0  0  0  0  0  0  0  0  0  0  0
   22.8194  -14.9221   23.7310 H   0  0  0  0  0  0  0  0  0  0  0  0
   23.1826  -12.9251   25.1656 H   0  0  0  0  0  0  0  0  0  0  0  0
   20.5481  -15.8425   23.4754 H   0  0  0  0  0  0  0  0  0  0  0  0
   16.1032  -16.0234   22.2240 H   0  0  0  0  0  0  0  0  0  0  0  0
   15.6580  -15.2072   23.5752 H   0  0  0  0  0  0  0  0  0  0  0  0
   16.4848  -16.6299   23.6962 H   0  0  0  0  0  0  0  0  0  0  0  0
   18.3188  -15.6341   22.5428 H   0  0  0  0  0  0  0  0  0  0  0  0
   18.2019  -15.9088   25.0516 H   0  0  0  0  0  0  0  0  0  0  0  0
   17.4891  -14.3359   25.2212 H   0  0  0  0  0  0  0  0  0  0  0  0
   18.3304  -11.0518   21.7727 H   0  0  0  0  0  0  0  0  0  0  0  0
   19.2934  -10.9089   19.5162 H   0  0  0  0  0  0  0  0  0  0  0  0
   18.4769  -12.3582   18.9331 H   0  0  0  0  0  0  0  0  0  0  0  0
   20.7134  -12.2135   21.0337 H   0  0  0  0  0  0  0  0  0  0  0  0
   20.7606  -13.1043   19.5152 H   0  0  0  0  0  0  0  0  0  0  0  0
   19.0083  -14.6804   20.3159 H   0  0  0  0  0  0  0  0  0  0  0  0
   20.0379  -14.4132   21.7362 H   0  0  0  0  0  0  0  0  0  0  0  0
   16.3459   -9.8513   21.4168 H   0  0  0  0  0  0  0  0  0  0  0  0
   14.1803  -10.8634   19.5755 H   0  0  0  0  0  0  0  0  0  0  0  0
   14.4493   -9.2409   20.1036 H   0  0  0  0  0  0  0  0  0  0  0  0
   10.8177  -13.3519   22.1063 H   0  0  0  0  0  0  0  0  0  0  0  0
   10.6690  -12.9826   23.8408 H   0  0  0  0  0  0  0  0  0  0  0  0
    9.5673  -12.2182   22.6707 H   0  0  0  0  0  0  0  0  0  0  0  0
   14.0290   -7.3076   23.0046 H   0  0  0  0  0  0  0  0  0  0  0  0
   15.3058   -8.4110   22.4393 H   0  0  0  0  0  0  0  0  0  0  0  0
   14.2028   -7.6516   21.2672 H   0  0  0  0  0  0  0  0  0  0  0  0
  1  2  1  0
  1 37  1  0
  1 38  1  0
  1 39  1  0
  2  3  1  0
  2  5  1  0
  2 40  1  6
  3  4  2  0
  3 12  1  0
  5  6  1  0
  5 41  1  0
  5 42  1  0
  6  7  2  0
  6  8  1  0
  7  9  1  0
  7 36  1  0
  8 10  2  0
  8 32  1  0
  9 11  2  0
  9 34  1  0
 10 11  1  0
 10 33  1  0
 11 35  1  0
 12 13  1  0
 12 18  1  0
 13 14  1  0
 13 16  1  0
 13 43  1  1
 14 15  2  0
 14 19  1  0
 16 17  1  0
 16 44  1  0
 16 45  1  0
 17 18  1  0
 17 46  1  0
 17 47  1  0
 18 48  1  0
 18 49  1  0
 19 20  1  0
 19 50  1  0
 20 21  1  0
 20 51  1  0
 20 52  1  0
 21 22  2  0
 21 26  1  0
 22 23  1  0
 22 27  1  0
 23 24  2  0
 23 28  1  0
 24 25  1  0
 24 29  1  0
 25 26  2  0
 25 30  1  0
 26 31  1  0
 27 56  1  0
 27 57  1  0
 27 58  1  0
 30 53  1  0
 30 54  1  0
 30 55  1  0
M  CHG  1   1   1
M  END
>  <r_exp_dg>  (13) 
-7.62466

>  <experimental dG reference units>  (13) 
kcal/mol

>  <experimental dG reference field>  (13) 
r_exp_dg

>  <kJ/mol experimental dG>  (13) 
-31.901577440000004

>  <kcal/mol experimental dG>  (13) 
-7.62466

>  <AmberAM1BCCCache>  (13) 
gASVqQQAAAAAAABdlCiMFm51bXB5Ll9jb3JlLm11bHRpYXJyYXmUjAZzY2FsYXKUk5SMBW51bXB5lIwFZHR5cGWUk5SMAmY4lImIh5RSlChLA4wBPJROTk5K/////0r/////SwB0lGJDCAYZG3zfyiPAlIaUUpRoA2gJQwgBnqrYE8vaP5SGlFKUaANoCUMIYDf/igq/HkCUhpRSlGgDaAlDCHQwC54bVRjAlIaUUpRoA2gJQwh4eMLD5oflv5SGlFKUaANoCUMIvrZqhaNX/L+UhpRSlGgDaAlDCHUmnuWn7fm/lIaUUpRoA2gJQwh1Jp7lp+35v5SGlFKUaANoCUMIrZyCcag29b+UhpRSlGgDaAlDCK2cgnGoNvW/lIaUUpRoA2gJQwhTzmwIuDvzv5SGlFKUaANoCUMI6NPE4WDgFMCUhpRSlGgDaAlDCHwFMSvQQc8/lIaUUpRoA2gJQwioPyYkjWoeQJSGlFKUaANoCUMIg5tM2exFHsCUhpRSlGgDaAlDCAl1o64cq/C/lIaUUpRoA2gJQwjPInd33RLvv5SGlFKUaANoCUMI0vWv9/gp6z+UhpRSlGgDaAlDCFdTHXCs+xjAlIaUUpRoA2gJQwg5wjmU3QL4P5SGlFKUaANoCUMIHwcvVeEi+b+UhpRSlGgDaAlDCIbTuPHF++W/lIaUUpRoA2gJQwhkUwQl/yL4v5SGlFKUaANoCUMICp9EnYQe9b+UhpRSlGgDaAlDCE0pKKPZxey/lIaUUpRoA2gJQwgGa5jamDH3v5SGlFKUaANoCUMIlYz80PjP6L+UhpRSlGgDaAlDCNPCzut1B/o/lIaUUpRoA2gJQwiktELlTJj6P5SGlFKUaANoCUMIQNg8SX7L5b+UhpRSlGgDaAlDCGPtcv/wVPg/lIaUUpRoA2gJQwhi0xwee175P5SGlFKUaANoCUMI0HTMRxQk/T+UhpRSlGgDaAlDCNB0zEcUJP0/lIaUUpRoA2gJQwj8aAJtx5z9P5SGlFKUaANoCUMIYtMcHnte+T+UhpRSlGgDaAlDCA6chd0awhVAlIaUUpRoA2gJQwgOnIXdGsIVQJSGlFKUaANoCUMIDpyF3RrCFUCUhpRSlGgDaAlDCETpg//Qifo/lIaUUpRoA2gJQwgGcLa91in1P5SGlFKUaANoCUMIBnC2vdYp9T+UhpRSlGgDaAlDCNl7gJgjsfQ/lIaUUpRoA2gJQwjeHPpi7LDtP5SGlFKUaANoCUMI3hz6Yuyw7T+UhpRSlGgDaAlDCLJCGh+vLuw/lIaUUpRoA2gJQwiyQhofry7sP5SGlFKUaANoCUMI3IzHTnZv2T+UhpRSlGgDaAlDCNyMx052b9k/lIaUUpRoA2gJQwjEveKeksANQJSGlFKUaANoCUMI3hz6Yuyw7T+UhpRSlGgDaAlDCN4c+mLssO0/lIaUUpRoA2gJQwgfL+M2sMDiP5SGlFKUaANoCUMIHy/jNrDA4j+UhpRSlGgDaAlDCB8v4zawwOI/lIaUUpRoA2gJQwhKbiEQZ0HjP5SGlFKUaANoCUMISm4hEGdB4z+UhpRSlGgDaAlDCEpuIRBnQeM/lIaUUpRlLg==

$$$$
3b pose 1
     RDKit          3D

 58 60  0  0  1  0  0  0  0  0999 V2000
   16.3900  -15.7830   23.1600 N   0  0  0  0  0  0  0  0  0  0  0  0
   17.6570  -15.0120   23.1460 C   0  0  1  0  0  0  0  0  0  0  0  0
   17.4360  -13.6310   22.5680 C   0  0  0  0  0  0  0  0  0  0  0  0
   16.5060  -12.9450   23.0320 O   0  0  0  0  0  0  0  0  0  0  0  0
   18.1720  -14.9170   24.5950 C   0  0  0  0  0  0  0  0  0  0  0  0
   19.5920  -14.3710   24.7440 C   0  0  0  0  0  0  0  0  0  0  0  0
   20.6910  -14.9640   24.0890 C   0  0  0  0  0  0  0  0  0  0  0  0
   19.8220  -13.2490   25.5510 C   0  0  0  0  0  0  0  0  0  0  0  0
   21.9860  -14.4540   24.2350 C   0  0  0  0  0  0  0  0  0  0  0  0
   21.1010  -12.7410   25.6970 C   0  0  0  0  0  0  0  0  0  0  0  0
   22.1890  -13.3330   25.0460 C   0  0  0  0  0  0  0  0  0  0  0  0
   18.2450  -13.1710   21.5890 N   0  0  0  0  0  0  0  0  0  0  0  0
   18.0280  -11.8220   21.0620 C   0  0  2  0  0  0  0  0  0  0  0  0
   16.5893  -11.6156   20.4925 C   0  0  0  0  0  0  0  0  0  0  0  0
   16.0751  -12.5094   19.8121 O   0  0  0  0  0  0  0  0  0  0  0  0
   18.9440  -11.8950   19.8030 C   0  0  0  0  0  0  0  0  0  0  0  0
   20.1040  -12.7670   20.3170 C   0  0  0  0  0  0  0  0  0  0  0  0
   19.3760  -13.9390   21.0230 C   0  0  0  0  0  0  0  0  0  0  0  0
   15.9723  -10.4627   20.7546 N   0  0  0  0  0  0  0  0  0  0  0  0
   14.6088  -10.1143   20.3543 C   0  0  0  0  0  0  0  0  0  0  0  0
   13.5124  -10.6096   21.2813 C   0  0  0  0  0  0  0  0  0  0  0  0
   13.0572   -9.7888   22.3185 C   0  0  0  0  0  0  0  0  0  0  0  0
   12.0122  -10.2038   23.1515 C   0  0  0  0  0  0  0  0  0  0  0  0
   11.3997  -11.4364   22.9033 C   0  0  0  0  0  0  0  0  0  0  0  0
   11.8400  -12.2533   21.8630 C   0  0  0  0  0  0  0  0  0  0  0  0
   12.8928  -11.8404   21.0503 C   0  0  0  0  0  0  0  0  0  0  0  0
   13.5466   -8.8414   22.4802 H   0  0  0  0  0  0  0  0  0  0  0  0
   11.5678   -9.4129   24.3808 C   0  0  0  0  0  0  0  0  0  0  0  0
   10.5882  -11.7766   23.5346 H   0  0  0  0  0  0  0  0  0  0  0  0
   11.3676  -13.2112   21.6988 H   0  0  0  0  0  0  0  0  0  0  0  0
   13.2307  -12.4772   20.2443 H   0  0  0  0  0  0  0  0  0  0  0  0
   19.0084  -12.7761   26.0698 H   0  0  0  0  0  0  0  0  0  0  0  0
   21.2507  -11.8699   26.3203 H   0  0  0  0  0  0  0  0  0  0  0  0
   22.8194  -14.9221   23.7310 H   0  0  0  0  0  0  0  0  0  0  0  0
   23.1826  -12.9251   25.1656 H   0  0  0  0  0  0  0  0  0  0  0  0
   20.5480  -15.8424   23.4754 H   0  0  0  0  0  0  0  0  0  0  0  0
   16.4839  -16.6302   23.6957 H   0  0  0  0  0  0  0  0  0  0  0  0
   15.6582  -15.2064   23.5747 H   0  0  0  0  0  0  0  0  0  0  0  0
   16.1026  -16.0217   22.2237 H   0  0  0  0  0  0  0  0  0  0  0  0
   18.3187  -15.6341   22.5428 H   0  0  0  0  0  0  0  0  0  0  0  0
   18.2018  -15.9088   25.0515 H   0  0  0  0  0  0  0  0  0  0  0  0
   17.4890  -14.3358   25.2211 H   0  0  0  0  0  0  0  0  0  0  0  0
   18.3384  -11.0560   21.7738 H   0  0  0  0  0  0  0  0  0  0  0  0
   19.2923  -10.9089   19.5148 H   0  0  0  0  0  0  0  0  0  0  0  0
   18.4714  -12.3587   18.9360 H   0  0  0  0  0  0  0  0  0  0  0  0
   20.7135  -12.2133   21.0336 H   0  0  0  0  0  0  0  0  0  0  0  0
   20.7606  -13.1044   19.5152 H   0  0  0  0  0  0  0  0  0  0  0  0
   19.0084  -14.6805   20.3160 H   0  0  0  0  0  0  0  0  0  0  0  0
   20.0378  -14.4131   21.7363 H   0  0  0  0  0  0  0  0  0  0  0  0
   16.4734   -9.7711   21.3189 H   0  0  0  0  0  0  0  0  0  0  0  0
   14.3980  -10.4680   19.3418 H   0  0  0  0  0  0  0  0  0  0  0  0
   14.5362   -9.0269   20.3247 H   0  0  0  0  0  0  0  0  0  0  0  0
   12.1149   -7.9830   24.5767 C   0  0  0  0  0  0  0  0  0  0  0  0
   10.4786   -9.3990   24.4245 H   0  0  0  0  0  0  0  0  0  0  0  0
   11.8732  -10.0081   25.2325 H   0  0  0  0  0  0  0  0  0  0  0  0
   13.1710   -7.8742   24.3380 H   0  0  0  0  0  0  0  0  0  0  0  0
   11.5331   -7.2592   24.0251 H   0  0  0  0  0  0  0  0  0  0  0  0
   12.0149   -7.6578   25.6050 H   0  0  0  0  0  0  0  0  0  0  0  0
  1  2  1  0
  1 37  1  0
  1 38  1  0
  1 39  1  0
  2  3  1  0
  2  5  1  0
  2 40  1  6
  3  4  2  0
  3 12  1  0
  5  6  1  0
  5 41  1  0
  5 42  1  0
  6  7  2  0
  6  8  1  0
  7  9  1  0
  7 36  1  0
  8 10  2  0
  8 32  1  0
  9 11  2  0
  9 34  1  0
 10 11  1  0
 10 33  1  0
 11 35  1  0
 12 13  1  0
 12 18  1  0
 13 14  1  0
 13 16  1  0
 13 43  1  1
 14 15  2  0
 14 19  1  0
 16 17  1  0
 16 44  1  0
 16 45  1  0
 17 18  1  0
 17 46  1  0
 17 47  1  0
 18 48  1  0
 18 49  1  0
 19 20  1  0
 19 50  1  0
 20 21  1  0
 20 51  1  0
 20 52  1  0
 21 22  2  0
 21 26  1  0
 22 23  1  0
 22 27  1  0
 23 24  2  0
 23 28  1  0
 24 25  1  0
 24 29  1  0
 25 26  2  0
 25 30  1  0
 26 31  1  0
 28 53  1  0
 28 54  1  0
 28 55  1  0
 53 56  1  0
 53 57  1  0
 53 58  1  0
M  CHG  1   1   1
M  END
>  <r_exp_dg>  (14) 
-7.25489

>  <experimental dG reference units>  (14) 
kcal/mol

>  <experimental dG reference field>  (14) 
r_exp_dg

>  <kJ/mol experimental dG>  (14) 
-30.35445976

>  <kcal/mol experimental dG>  (14) 
-7.25489

>  <AmberAM1BCCCache>  (14) 
gASVqQQAAAAAAABdlCiMFm51bXB5Ll9jb3JlLm11bHRpYXJyYXmUjAZzY2FsYXKUk5SMBW51bXB5lIwFZHR5cGWUk5SMAmY4lImIh5RSlChLA4wBPJROTk5K/////0r/////SwB0lGJDCOoXS928yiPAlIaUUpRoA2gJQwh7waqyZ8/aP5SGlFKUaANoCUMI3R9vxoTAHkCUhpRSlGgDaAlDCD0ua2DWVBjAlIaUUpRoA2gJQwhGXbonTOblv5SGlFKUaANoCUMImLJu5kYm/L+UhpRSlGgDaAlDCDkbXMO2BPq/lIaUUpRoA2gJQwg5G1zDtgT6v5SGlFKUaANoCUMIz5MCe5M19b+UhpRSlGgDaAlDCM+TAnuTNfW/lIaUUpRoA2gJQwh1xewRozrzv5SGlFKUaANoCUMIsdEkpBvgFMCUhpRSlGgDaAlDCG9MMd93Ss8/lIaUUpRoA2gJQwiNp6VUEHIeQJSGlFKUaANoCUMIU039qjQ9HsCUhpRSlGgDaAlDCOVwpw/AefC/lIaUUpRoA2gJQwgTEXeKsxDvv5SGlFKUaANoCUMIAxG4k5PL6j+UhpRSlGgDaAlDCDtLGMXANxnAlIaUUpRoA2gJQwijwbHbgWT4P5SGlFKUaANoCUMIrHW9mf1z+L+UhpRSlGgDaAlDCAQaMhSG+/W/lIaUUpRoA2gJQwjRtFato5Pqv5SGlFKUaANoCUMIcpFAT7dN9b+UhpRSlGgDaAlDCCwrFZ4jV/e/lIaUUpRoA2gJQwjvwZJpG3T3v5SGlFKUaANoCUMI3xDeLhRR+T+UhpRSlGgDaAlDCCRXfLxubd+/lIaUUpRoA2gJQwjHuD6Eqcn6P5SGlFKUaANoCUMIAVnE/hGG+j+UhpRSlGgDaAlDCNG15wA13fg/lIaUUpRoA2gJQwhB3JwUkF/5P5SGlFKUaANoCUMIr31MPikl/T+UhpRSlGgDaAlDCK99TD4pJf0/lIaUUpRoA2gJQwjbcYJj3J39P5SGlFKUaANoCUMIQdycFJBf+T+UhpRSlGgDaAlDCEWeJRtgwhVAlIaUUpRoA2gJQwhFniUbYMIVQJSGlFKUaANoCUMIRZ4lG2DCFUCUhpRSlGgDaAlDCCPyA/blivo/lIaUUpRoA2gJQwiX3hWnKTL1P5SGlFKUaANoCUMIl94Vpyky9T+UhpRSlGgDaAlDCHGJhObwgfQ/lIaUUpRoA2gJQwhWM36nzoLtP5SGlFKUaANoCUMIVjN+p86C7T+UhpRSlGgDaAlDCG5UGgzZMOw/lIaUUpRoA2gJQwhuVBoM2TDsP5SGlFKUaANoCUMIVrDHKMpz2T+UhpRSlGgDaAlDCFawxyjKc9k/lIaUUpRoA2gJQwh1vZ7CZPENQJSGlFKUaANoCUMITKGEM4817T+UhpRSlGgDaAlDCEyhhDOPNe0/lIaUUpRoA2gJQwjU+1oAaw/xv5SGlFKUaANoCUMIxwKaWuUx4z+UhpRSlGgDaAlDCMcCmlrlMeM/lIaUUpRoA2gJQwhQqJlf5gDeP5SGlFKUaANoCUMIUKiZX+YA3j+UhpRSlGgDaAlDCFComV/mAN4/lIaUUpRlLg==

$$$$
6d pose 2
     RDKit          3D

 53 55  0  0  1  0  0  0  0  0999 V2000
   16.3900  -15.7830   23.1600 N   0  0  0  0  0  0  0  0  0  0  0  0
   17.6570  -15.0120   23.1460 C   0  0  1  0  0  0  0  0  0  0  0  0
   17.4360  -13.6310   22.5680 C   0  0  0  0  0  0  0  0  0  0  0  0
   16.5060  -12.9450   23.0320 O   0  0  0  0  0  0  0  0  0  0  0  0
   18.1720  -14.9170   24.5950 C   0  0  0  0  0  0  0  0  0  0  0  0
   19.5920  -14.3710   24.7440 C   0  0  0  0  0  0  0  0  0  0  0  0
   20.6910  -14.9640   24.0890 C   0  0  0  0  0  0  0  0  0  0  0  0
   19.8220  -13.2490   25.5510 C   0  0  0  0  0  0  0  0  0  0  0  0
   21.9860  -14.4540   24.2350 C   0  0  0  0  0  0  0  0  0  0  0  0
   21.1010  -12.7410   25.6970 C   0  0  0  0  0  0  0  0  0  0  0  0
   22.1890  -13.3330   25.0460 C   0  0  0  0  0  0  0  0  0  0  0  0
   18.2450  -13.1710   21.5890 N   0  0  0  0  0  0  0  0  0  0  0  0
   18.0280  -11.8220   21.0620 C   0  0  2  0  0  0  0  0  0  0  0  0
   16.5816  -11.6353   20.4899 C   0  0  0  0  0  0  0  0  0  0  0  0
   16.1177  -12.5078   19.7504 O   0  0  0  0  0  0  0  0  0  0  0  0
   18.9440  -11.8950   19.8030 C   0  0  0  0  0  0  0  0  0  0  0  0
   20.1040  -12.7670   20.3170 C   0  0  0  0  0  0  0  0  0  0  0  0
   19.3760  -13.9390   21.0230 C   0  0  0  0  0  0  0  0  0  0  0  0
   15.8887  -10.5441   20.8300 N   0  0  0  0  0  0  0  0  0  0  0  0
   14.5050  -10.2505   20.4326 C   0  0  0  0  0  0  0  0  0  0  0  0
   13.4488  -10.4224   21.5238 C   0  0  0  0  0  0  0  0  0  0  0  0
   12.8299  -11.6727   21.6524 C   0  0  0  0  0  0  0  0  0  0  0  0
   11.9286  -11.9264   22.6831 C   0  0  0  0  0  0  0  0  0  0  0  0
   11.6554  -10.9366   23.6232 C   0  0  0  0  0  0  0  0  0  0  0  0
   12.2615   -9.6848   23.5075 C   0  0  0  0  0  0  0  0  0  0  0  0
   13.1546   -9.4197   22.4665 C   0  0  0  0  0  0  0  0  0  0  0  0
   13.0401  -12.4584   20.9426 H   0  0  0  0  0  0  0  0  0  0  0  0
   11.1507  -13.4623   22.7756 Cl  0  0  0  0  0  0  0  0  0  0  0  0
   10.9751  -11.1390   24.4413 H   0  0  0  0  0  0  0  0  0  0  0  0
   12.0445   -8.9207   24.2400 H   0  0  0  0  0  0  0  0  0  0  0  0
   13.7450   -8.1907   22.4280 O   0  0  0  0  0  0  0  0  0  0  0  0
   19.0085  -12.7762   26.0701 H   0  0  0  0  0  0  0  0  0  0  0  0
   21.2507  -11.8699   26.3204 H   0  0  0  0  0  0  0  0  0  0  0  0
   22.8194  -14.9222   23.7310 H   0  0  0  0  0  0  0  0  0  0  0  0
   23.1826  -12.9251   25.1656 H   0  0  0  0  0  0  0  0  0  0  0  0
   20.5481  -15.8425   23.4755 H   0  0  0  0  0  0  0  0  0  0  0  0
   16.4851  -16.6312   23.6941 H   0  0  0  0  0  0  0  0  0  0  0  0
   15.6579  -15.2082   23.5762 H   0  0  0  0  0  0  0  0  0  0  0  0
   16.1022  -16.0209   22.2235 H   0  0  0  0  0  0  0  0  0  0  0  0
   18.3189  -15.6340   22.5429 H   0  0  0  0  0  0  0  0  0  0  0  0
   18.2021  -15.9089   25.0514 H   0  0  0  0  0  0  0  0  0  0  0  0
   17.4891  -14.3362   25.2215 H   0  0  0  0  0  0  0  0  0  0  0  0
   18.3313  -11.0520   21.7725 H   0  0  0  0  0  0  0  0  0  0  0  0
   19.2931  -10.9088   19.5162 H   0  0  0  0  0  0  0  0  0  0  0  0
   18.4772  -12.3582   18.9329 H   0  0  0  0  0  0  0  0  0  0  0  0
   20.7134  -12.2134   21.0337 H   0  0  0  0  0  0  0  0  0  0  0  0
   20.7607  -13.1043   19.5152 H   0  0  0  0  0  0  0  0  0  0  0  0
   19.0084  -14.6804   20.3159 H   0  0  0  0  0  0  0  0  0  0  0  0
   20.0380  -14.4131   21.7361 H   0  0  0  0  0  0  0  0  0  0  0  0
   16.3604   -9.8505   21.4149 H   0  0  0  0  0  0  0  0  0  0  0  0
   14.2083  -10.7995   19.5354 H   0  0  0  0  0  0  0  0  0  0  0  0
   14.4490   -9.2049   20.1403 H   0  0  0  0  0  0  0  0  0  0  0  0
   13.4138   -7.6533   23.1512 H   0  0  0  0  0  0  0  0  0  0  0  0
  1  2  1  0
  1 37  1  0
  1 38  1  0
  1 39  1  0
  2  3  1  0
  2  5  1  0
  2 40  1  6
  3  4  2  0
  3 12  1  0
  5  6  1  0
  5 41  1  0
  5 42  1  0
  6  7  2  0
  6  8  1  0
  7  9  1  0
  7 36  1  0
  8 10  2  0
  8 32  1  0
  9 11  2  0
  9 34  1  0
 10 11  1  0
 10 33  1  0
 11 35  1  0
 12 13  1  0
 12 18  1  0
 13 14  1  0
 13 16  1  0
 13 43  1  1
 14 15  2  0
 14 19  1  0
 16 17  1  0
 16 44  1  0
 16 45  1  0
 17 18  1  0
 17 46  1  0
 17 47  1  0
 18 48  1  0
 18 49  1  0
 19 20  1  0
 19 50  1  0
 20 21  1  0
 20 51  1  0
 20 52  1  0
 21 22  2  0
 21 26  1  0
 22 23  1  0
 22 27  1  0
 23 24  2  0
 23 28  1  0
 24 25  1  0
 24 29  1  0
 25 26  2  0
 25 30  1  0
 26 31  1  0
 31 53  1  0
M  CHG  1   1   1
M  END
>  <r_exp_dg>  (15) 
-8.73291

>  <experimental dG reference units>  (15) 
kcal/mol

>  <experimental dG reference field>  (15) 
r_exp_dg

>  <kJ/mol experimental dG>  (15) 
-36.538495440000005

>  <kcal/mol experimental dG>  (15) 
-8.73291

>  <AmberAM1BCCCache>  (15) 
gASVSgQAAAAAAABdlCiMFm51bXB5Ll9jb3JlLm11bHRpYXJyYXmUjAZzY2FsYXKUk5SMBW51bXB5lIwFZHR5cGWUk5SMAmY4lImIh5RSlChLA4wBPJROTk5K/////0r/////SwB0lGJDCOn3isAluiPAlIaUUpRoA2gJQwgdXyrR4Y3gP5SGlFKUaANoCUMIfqncxEkCH0CUhpRSlGgDaAlDCAMfYyC3URnAlIaUUpRoA2gJQwhhxjqQ4r/kv5SGlFKUaANoCUMIwQGaUyCO/L+UhpRSlGgDaAlDCFzlOK2Lmvm/lIaUUpRoA2gJQwhc5Titi5r5v5SGlFKUaANoCUMIIxsSRLtq9b+UhpRSlGgDaAlDCCMbEkS7avW/lIaUUpRoA2gJQwjzhOA2GT3zv5SGlFKUaANoCUMIw62WmJSlFMCUhpRSlGgDaAlDCCFTgTRtANM/lIaUUpRoA2gJQwjeq57wJeoeQJSGlFKUaANoCUMIki4fjpiGIMCUhpRSlGgDaAlDCL1pYKZyPfC/lIaUUpRoA2gJQwiYByT1/hHwv5SGlFKUaANoCUMIRJCjdWPj7D+UhpRSlGgDaAlDCLSzRJ99fhjAlIaUUpRoA2gJQwguKQgi/+j6P5SGlFKUaANoCUMIqhSqsQHN+7+UhpRSlGgDaAlDCFuIg/lyWe2/lIaUUpRoA2gJQwiiOfTrV3/Gv5SGlFKUaANoCUMIQT1GpgA46r+UhpRSlGgDaAlDCGecF+YCSQLAlIaUUpRoA2gJQwgslLcqS6/4P5SGlFKUaANoCUMIe5wnXRBw/D+UhpRSlGgDaAlDCHapH159B+y/lIaUUpRoA2gJQwiSOL7XWGH+P5SGlFKUaANoCUMImGxqmkRO/D+UhpRSlGgDaAlDCIOyY4mPihjAlIaUUpRoA2gJQwiY5MSTy4/5P5SGlFKUaANoCUMIi8AaRY8K/T+UhpRSlGgDaAlDCIvAGkWPCv0/lIaUUpRoA2gJQwhdso4+Zpv9P5SGlFKUaANoCUMImOTEk8uP+T+UhpRSlGgDaAlDCP4T1ohaKBZAlIaUUpRoA2gJQwj+E9aIWigWQJSGlFKUaANoCUMI/hPWiFooFkCUhpRSlGgDaAlDCLj1XoQm1vY/lIaUUpRoA2gJQwg/qF8F2MzzP5SGlFKUaANoCUMIP6hfBdjM8z+UhpRSlGgDaAlDCF4nSRs22/Q/lIaUUpRoA2gJQwgyUlqsblLtP5SGlFKUaANoCUMIMlJarG5S7T+UhpRSlGgDaAlDCA4KdNxwHew/lIaUUpRoA2gJQwgOCnTccB3sP5SGlFKUaANoCUMIjYXf5DwQ4T+UhpRSlGgDaAlDCI2F3+Q8EOE/lIaUUpRoA2gJQwgns4CcrqIPQJSGlFKUaANoCUMICA3LX+UJ7j+UhpRSlGgDaAlDCAgNy1/lCe4/lIaUUpRoA2gJQwjgR1qfppsUQJSGlFKUZS4=

$$$$
6c pose 1
     RDKit          3D

 56 58  0  0  1  0  0  0  0  0999 V2000
   16.3900  -15.7830   23.1600 N   0  0  0  0  0  0  0  0  0  0  0  0
   17.6570  -15.0120   23.1460 C   0  0  1  0  0  0  0  0  0  0  0  0
   17.4360  -13.6310   22.5680 C   0  0  0  0  0  0  0  0  0  0  0  0
   16.5060  -12.9450   23.0320 O   0  0  0  0  0  0  0  0  0  0  0  0
   18.1720  -14.9170   24.5950 C   0  0  0  0  0  0  0  0  0  0  0  0
   19.5920  -14.3710   24.7440 C   0  0  0  0  0  0  0  0  0  0  0  0
   20.6910  -14.9640   24.0890 C   0  0  0  0  0  0  0  0  0  0  0  0
   19.8220  -13.2490   25.5510 C   0  0  0  0  0  0  0  0  0  0  0  0
   21.9860  -14.4540   24.2350 C   0  0  0  0  0  0  0  0  0  0  0  0
   21.1010  -12.7410   25.6970 C   0  0  0  0  0  0  0  0  0  0  0  0
   22.1890  -13.3330   25.0460 C   0  0  0  0  0  0  0  0  0  0  0  0
   18.2450  -13.1710   21.5890 N   0  0  0  0  0  0  0  0  0  0  0  0
   18.0280  -11.8220   21.0620 C   0  0  2  0  0  0  0  0  0  0  0  0
   16.5816  -11.6353   20.4899 C   0  0  0  0  0  0  0  0  0  0  0  0
   16.1177  -12.5078   19.7504 O   0  0  0  0  0  0  0  0  0  0  0  0
   18.9440  -11.8950   19.8030 C   0  0  0  0  0  0  0  0  0  0  0  0
   20.1040  -12.7670   20.3170 C   0  0  0  0  0  0  0  0  0  0  0  0
   19.3760  -13.9390   21.0230 C   0  0  0  0  0  0  0  0  0  0  0  0
   15.8887  -10.5441   20.8300 N   0  0  0  0  0  0  0  0  0  0  0  0
   14.5050  -10.2505   20.4326 C   0  0  0  0  0  0  0  0  0  0  0  0
   13.4488  -10.4224   21.5238 C   0  0  0  0  0  0  0  0  0  0  0  0
   13.2461   -9.3640   22.4190 C   0  0  0  0  0  0  0  0  0  0  0  0
   12.2370   -9.4157   23.3771 C   0  0  0  0  0  0  0  0  0  0  0  0
   11.3918  -10.5205   23.4336 C   0  0  0  0  0  0  0  0  0  0  0  0
   11.5823  -11.5845   22.5508 C   0  0  0  0  0  0  0  0  0  0  0  0
   12.6029  -11.5448   21.5977 C   0  0  0  0  0  0  0  0  0  0  0  0
   13.8810   -8.4917   22.3814 H   0  0  0  0  0  0  0  0  0  0  0  0
   12.0540   -8.1138   24.4925 Cl  0  0  0  0  0  0  0  0  0  0  0  0
   10.5893  -10.5525   24.1603 H   0  0  0  0  0  0  0  0  0  0  0  0
   10.9233  -12.4394   22.6005 H   0  0  0  0  0  0  0  0  0  0  0  0
   12.7153  -12.5971   20.7371 O   0  0  0  0  0  0  0  0  0  0  0  0
   19.0085  -12.7762   26.0701 H   0  0  0  0  0  0  0  0  0  0  0  0
   21.2507  -11.8699   26.3204 H   0  0  0  0  0  0  0  0  0  0  0  0
   22.8194  -14.9222   23.7310 H   0  0  0  0  0  0  0  0  0  0  0  0
   23.1826  -12.9251   25.1656 H   0  0  0  0  0  0  0  0  0  0  0  0
   20.5481  -15.8425   23.4755 H   0  0  0  0  0  0  0  0  0  0  0  0
   16.4851  -16.6312   23.6941 H   0  0  0  0  0  0  0  0  0  0  0  0
   15.6579  -15.2082   23.5762 H   0  0  0  0  0  0  0  0  0  0  0  0
   16.1022  -16.0209   22.2235 H   0  0  0  0  0  0  0  0  0  0  0  0
   18.3189  -15.6340   22.5429 H   0  0  0  0  0  0  0  0  0  0  0  0
   18.2021  -15.9089   25.0514 H   0  0  0  0  0  0  0  0  0  0  0  0
   17.4891  -14.3362   25.2215 H   0  0  0  0  0  0  0  0  0  0  0  0
   18.3313  -11.0520   21.7725 H   0  0  0  0  0  0  0  0  0  0  0  0
   19.2931  -10.9088   19.5162 H   0  0  0  0  0  0  0  0  0  0  0  0
   18.4772  -12.3582   18.9329 H   0  0  0  0  0  0  0  0  0  0  0  0
   20.7134  -12.2134   21.0337 H   0  0  0  0  0  0  0  0  0  0  0  0
   20.7607  -13.1043   19.5152 H   0  0  0  0  0  0  0  0  0  0  0  0
   19.0084  -14.6804   20.3159 H   0  0  0  0  0  0  0  0  0  0  0  0
   20.0380  -14.4131   21.7361 H   0  0  0  0  0  0  0  0  0  0  0  0
   16.3604   -9.8505   21.4149 H   0  0  0  0  0  0  0  0  0  0  0  0
   14.2083  -10.7995   19.5354 H   0  0  0  0  0  0  0  0  0  0  0  0
   14.4490   -9.2049   20.1403 H   0  0  0  0  0  0  0  0  0  0  0  0
   11.6792  -13.6293   21.0703 C   0  0  0  0  0  0  0  0  0  0  0  0
   11.7690  -14.4702   20.3826 H   0  0  0  0  0  0  0  0  0  0  0  0
   11.8289  -13.9786   22.0919 H   0  0  0  0  0  0  0  0  0  0  0  0
   10.6857  -13.1903   20.9788 H   0  0  0  0  0  0  0  0  0  0  0  0
  1  2  1  0
  1 37  1  0
  1 38  1  0
  1 39  1  0
  2  3  1  0
  2  5  1  0
  2 40  1  6
  3  4  2  0
  3 12  1  0
  5  6  1  0
  5 41  1  0
  5 42  1  0
  6  7  2  0
  6  8  1  0
  7  9  1  0
  7 36  1  0
  8 10  2  0
  8 32  1  0
  9 11  2  0
  9 34  1  0
 10 11  1  0
 10 33  1  0
 11 35  1  0
 12 13  1  0
 12 18  1  0
 13 14  1  0
 13 16  1  0
 13 43  1  1
 14 15  2  0
 14 19  1  0
 16 17  1  0
 16 44  1  0
 16 45  1  0
 17 18  1  0
 17 46  1  0
 17 47  1  0
 18 48  1  0
 18 49  1  0
 19 20  1  0
 19 50  1  0
 20 21  1  0
 20 51  1  0
 20 52  1  0
 21 22  2  0
 21 26  1  0
 22 23  1  0
 22 27  1  0
 23 24  2  0
 23 28  1  0
 24 25  1  0
 24 29  1  0
 25 26  2  0
 25 30  1  0
 26 31  1  0
 31 53  1  0
 53 54  1  0
 53 55  1  0
 53 56  1  0
M  CHG  1   1   1
M  END
>  <r_exp_dg>  (16) 
-9.01441

>  <experimental dG reference units>  (16) 
kcal/mol

>  <experimental dG reference field>  (16) 
r_exp_dg

>  <kJ/mol experimental dG>  (16) 
-37.71629144

>  <kcal/mol experimental dG>  (16) 
-9.01441

>  <AmberAM1BCCCache>  (16) 
gASVgwQAAAAAAABdlCiMFm51bXB5Ll9jb3JlLm11bHRpYXJyYXmUjAZzY2FsYXKUk5SMBW51bXB5lIwFZHR5cGWUk5SMAmY4lImIh5RSlChLA4wBPJROTk5K/////0r/////SwB0lGJDCL1ZLrMKyyPAlIaUUpRoA2gJQwggh0L2rMXaP5SGlFKUaANoCUMIOpyoGum/HkCUhpRSlGgDaAlDCPbiz+QraxjAlIaUUpRoA2gJQwh0eu6FKevlv5SGlFKUaANoCUMILsGIlbUo/L+UhpRSlGgDaAlDCC0sOJ4B7/m/lIaUUpRoA2gJQwgtLDieAe/5v5SGlFKUaANoCUMIZqIcKgI49b+UhpRSlGgDaAlDCGaiHCoCOPW/lIaUUpRoA2gJQwgM1AbBET3zv5SGlFKUaANoCUMIV1XrT7fgFMCUhpRSlGgDaAlDCHH0IfhPSdA/lIaUUpRoA2gJQwhUjkLzakgeQJSGlFKUaANoCUMIP7eTVAU/HsCUhpRSlGgDaAlDCDK7SFxHJfC/lIaUUpRoA2gJQwhBLqvokBXvv5SGlFKUaANoCUMI1fODNbbG6j+UhpRSlGgDaAlDCJu+th0C2RjAlIaUUpRoA2gJQwhxE6cJQ6r6P5SGlFKUaANoCUMIgGhUk7Kc+7+UhpRSlGgDaAlDCP1m2wI10uy/lIaUUpRoA2gJQwiCMRBTeo3Hv5SGlFKUaANoCUMIegLdJeW+7L+UhpRSlGgDaAlDCLGeVi2SugHAlIaUUpRoA2gJQwivsNUAN3r4P5SGlFKUaANoCUMItKNzqT4U/T+UhpRSlGgDaAlDCN2zRSrr1u2/lIaUUpRoA2gJQwhl/KerQaD9P5SGlFKUaANoCUMIfh1EEExO/D+UhpRSlGgDaAlDCASm1f6foxDAlIaUUpRoA2gJQwirzYJlIV35P5SGlFKUaANoCUMIc3H0upYK/T+UhpRSlGgDaAlDCHNx9LqWCv0/lIaUUpRoA2gJQwhFY2i0bZv9P5SGlFKUaANoCUMIq82CZSFd+T+UhpRSlGgDaAlDCLxEf0f7xBVAlIaUUpRoA2gJQwi8RH9H+8QVQJSGlFKUaANoCUMIvER/R/vEFUCUhpRSlGgDaAlDCIzj6UZ3iPo/lIaUUpRoA2gJQwiANPrUCkP1P5SGlFKUaANoCUMIgDT61ApD9T+UhpRSlGgDaAlDCLJPMcxuLfQ/lIaUUpRoA2gJQwi6njsOwCvuP5SGlFKUaANoCUMIup47DsAr7j+UhpRSlGgDaAlDCPw7agW0++s/lIaUUpRoA2gJQwj8O2oFtPvrP5SGlFKUaANoCUMIsbHmCSgT2T+UhpRSlGgDaAlDCLGx5gkoE9k/lIaUUpRoA2gJQwgYax2x/eMOQJSGlFKUaANoCUMIfTW52bdI7j+UhpRSlGgDaAlDCH01udm3SO4/lIaUUpRoA2gJQwgWypaKFGz1P5SGlFKUaANoCUMIrb5QMIO/4z+UhpRSlGgDaAlDCK2+UDCDv+M/lIaUUpRoA2gJQwitvlAwg7/jP5SGlFKUZS4=

$$$$
3a xtal pose
     RDKit          3D

 55 57  0  0  1  0  0  0  0  0999 V2000
   16.3900  -15.7830   23.1600 N   0  0  0  0  0  0  0  0  0  0  0  0
   17.6570  -15.0120   23.1460 C   0  0  1  0  0  0  0  0  0  0  0  0
   17.4360  -13.6310   22.5680 C   0  0  0  0  0  0  0  0  0  0  0  0
   16.5060  -12.9450   23.0320 O   0  0  0  0  0  0  0  0  0  0  0  0
   18.1720  -14.9170   24.5950 C   0  0  0  0  0  0  0  0  0  0  0  0
   19.5920  -14.3710   24.7440 C   0  0  0  0  0  0  0  0  0  0  0  0
   20.6910  -14.9640   24.0890 C   0  0  0  0  0  0  0  0  0  0  0  0
   19.8220  -13.2490   25.5510 C   0  0  0  0  0  0  0  0  0  0  0  0
   21.9860  -14.4540   24.2350 C   0  0  0  0  0  0  0  0  0  0  0  0
   21.1010  -12.7410   25.6970 C   0  0  0  0  0  0  0  0  0  0  0  0
   22.1890  -13.3330   25.0460 C   0  0  0  0  0  0  0  0  0  0  0  0
   18.2450  -13.1710   21.5890 N   0  0  0  0  0  0  0  0  0  0  0  0
   18.0280  -11.8220   21.0620 C   0  0  2  0  0  0  0  0  0  0  0  0
   16.5952  -11.6246   20.4846 C   0  0  0  0  0  0  0  0  0  0  0  0
   16.0887  -12.5240   19.8054 O   0  0  0  0  0  0  0  0  0  0  0  0
   18.9440  -11.8950   19.8030 C   0  0  0  0  0  0  0  0  0  0  0  0
   20.1040  -12.7670   20.3170 C   0  0  0  0  0  0  0  0  0  0  0  0
   19.3760  -13.9390   21.0230 C   0  0  0  0  0  0  0  0  0  0  0  0
   15.9751  -10.4726   20.7369 N   0  0  0  0  0  0  0  0  0  0  0  0
   14.6095  -10.1483   20.3308 C   0  0  0  0  0  0  0  0  0  0  0  0
   13.5245  -10.7011   21.2362 C   0  0  0  0  0  0  0  0  0  0  0  0
   13.0244   -9.9104   22.2736 C   0  0  0  0  0  0  0  0  0  0  0  0
   11.9739  -10.3708   23.0649 C   0  0  0  0  0  0  0  0  0  0  0  0
   11.4100  -11.6222   22.8104 C   0  0  0  0  0  0  0  0  0  0  0  0
   11.9057  -12.4160   21.7764 C   0  0  0  0  0  0  0  0  0  0  0  0
   12.9556  -11.9539   20.9844 C   0  0  0  0  0  0  0  0  0  0  0  0
   13.4582   -8.9399   22.4704 H   0  0  0  0  0  0  0  0  0  0  0  0
   11.4703   -9.5296   24.2159 C   0  0  0  0  0  0  0  0  0  0  0  0
   10.5910  -11.9843   23.4186 H   0  0  0  0  0  0  0  0  0  0  0  0
   11.4722  -13.3891   21.5946 H   0  0  0  0  0  0  0  0  0  0  0  0
   13.3299  -12.5690   20.1778 H   0  0  0  0  0  0  0  0  0  0  0  0
   19.0084  -12.7762   26.0699 H   0  0  0  0  0  0  0  0  0  0  0  0
   21.2508  -11.8699   26.3204 H   0  0  0  0  0  0  0  0  0  0  0  0
   22.8194  -14.9221   23.7309 H   0  0  0  0  0  0  0  0  0  0  0  0
   23.1826  -12.9251   25.1655 H   0  0  0  0  0  0  0  0  0  0  0  0
   20.5480  -15.8424   23.4754 H   0  0  0  0  0  0  0  0  0  0  0  0
   15.6580  -15.2062   23.5742 H   0  0  0  0  0  0  0  0  0  0  0  0
   16.1029  -16.0220   22.2237 H   0  0  0  0  0  0  0  0  0  0  0  0
   16.4837  -16.6300   23.6961 H   0  0  0  0  0  0  0  0  0  0  0  0
   18.3187  -15.6341   22.5428 H   0  0  0  0  0  0  0  0  0  0  0  0
   18.2019  -15.9089   25.0515 H   0  0  0  0  0  0  0  0  0  0  0  0
   17.4890  -14.3359   25.2212 H   0  0  0  0  0  0  0  0  0  0  0  0
   18.3342  -11.0537   21.7733 H   0  0  0  0  0  0  0  0  0  0  0  0
   19.2927  -10.9088   19.5155 H   0  0  0  0  0  0  0  0  0  0  0  0
   18.4745  -12.3588   18.9344 H   0  0  0  0  0  0  0  0  0  0  0  0
   20.7134  -12.2134   21.0337 H   0  0  0  0  0  0  0  0  0  0  0  0
   20.7607  -13.1043   19.5152 H   0  0  0  0  0  0  0  0  0  0  0  0
   19.0083  -14.6804   20.3160 H   0  0  0  0  0  0  0  0  0  0  0  0
   20.0378  -14.4131   21.7363 H   0  0  0  0  0  0  0  0  0  0  0  0
   16.4693   -9.7737   21.2977 H   0  0  0  0  0  0  0  0  0  0  0  0
   14.4167  -10.4851   19.3089 H   0  0  0  0  0  0  0  0  0  0  0  0
   14.5081   -9.0625   20.3230 H   0  0  0  0  0  0  0  0  0  0  0  0
   10.3876   -9.6116   24.3073 H   0  0  0  0  0  0  0  0  0  0  0  0
   11.9094   -9.8794   25.1441 H   0  0  0  0  0  0  0  0  0  0  0  0
   11.7301   -8.4768   24.1023 H   0  0  0  0  0  0  0  0  0  0  0  0
  1  2  1  0
  1 37  1  0
  1 38  1  0
  1 39  1  0
  2  3  1  0
  2  5  1  0
  2 40  1  6
  3  4  2  0
  3 12  1  0
  5  6  1  0
  5 41  1  0
  5 42  1  0
  6  7  2  0
  6  8  1  0
  7  9  1  0
  7 36  1  0
  8 10  2  0
  8 32  1  0
  9 11  2  0
  9 34  1  0
 10 11  1  0
 10 33  1  0
 11 35  1  0
 12 13  1  0
 12 18  1  0
 13 14  1  0
 13 16  1  0
 13 43  1  1
 14 15  2  0
 14 19  1  0
 16 17  1  0
 16 44  1  0
 16 45  1  0
 17 18  1  0
 17 46  1  0
 17 47  1  0
 18 48  1  0
 18 49  1  0
 19 20  1  0
 19 50  1  0
 20 21  1  0
 20 51  1  0
 20 52  1  0
 21 22  2  0
 21 26  1  0
 22 23  1  0
 22 27  1  0
 23 24  2  0
 23 28  1  0
 24 25  1  0
 24 29  1  0
 25 26  2  0
 25 30  1  0
 26 31  1  0
 28 53  1  0
 28 54  1  0
 28 55  1  0
M  CHG  1   1   1
M  END
>  <r_exp_dg>  (17) 
-8.12044

>  <experimental dG reference units>  (17) 
kcal/mol

>  <experimental dG reference field>  (17) 
r_exp_dg

>  <kJ/mol experimental dG>  (17) 
-33.97592096

>  <kcal/mol experimental dG>  (17) 
-8.12044

>  <AmberAM1BCCCache>  (17) 
gASVcAQAAAAAAABdlCiMFm51bXB5Ll9jb3JlLm11bHRpYXJyYXmUjAZzY2FsYXKUk5SMBW51bXB5lIwFZHR5cGWUk5SMAmY4lImIh5RSlChLA4wBPJROTk5K/////0r/////SwB0lGJDCFRpLEqgyiPAlIaUUpRoA2gJQwhFlIAW+tLaP5SGlFKUaANoCUMIC32s7L3AHkCUhpRSlGgDaAlDCBDRLTqdVBjAlIaUUpRoA2gJQwjhc8/1guTlv5SGlFKUaANoCUMI5j15TWIl/L+UhpRSlGgDaAlDCIemZirSA/q/lIaUUpRoA2gJQwiHpmYq0gP6v5SGlFKUaANoCUMIHB8N4q409b+UhpRSlGgDaAlDCBwfDeKuNPW/lIaUUpRoA2gJQwjCUPd4vjnzv5SGlFKUaANoCUMIhHTnfeLfFMCUhpRSlGgDaAlDCATy3KacUc8/lIaUUpRoA2gJQwh1HhN9FHEeQJSGlFKUaANoCUMITD1Qi1w5HsCUhpRSlGgDaAlDCDL8sXbbePC/lIaUUpRoA2gJQwitJ4xY6g7vv5SGlFKUaANoCUMIafqixVzN6j+UhpRSlGgDaAlDCA7u2p6HNxnAlIaUUpRoA2gJQwhVNqd0ZmX4P5SGlFKUaANoCUMINKFNe4Ev+L+UhpRSlGgDaAlDCEj57CXstva/lIaUUpRoA2gJQwjoZm2ein7qv5SGlFKUaANoCUMIjw6/r6nd9b+UhpRSlGgDaAlDCC/ypqJX//a/lIaUUpRoA2gJQwi66J7z5l/3v5SGlFKUaANoCUMIKvEXKN0c+T+UhpRSlGgDaAlDCDTKQcypiOa/lIaUUpRoA2gJQwh5LTQdjsr6P5SGlFKUaANoCUMIkzR6oCKC+j+UhpRSlGgDaAlDCGdamlzl//g/lIaUUpRoA2gJQwj0UJKtdGD5P5SGlFKUaANoCUMIYfJB1w0m/T+UhpRSlGgDaAlDCGHyQdcNJv0/lIaUUpRoA2gJQwiN5nf8wJ79P5SGlFKUaANoCUMI9FCSrXRg+T+UhpRSlGgDaAlDCHL7YkGZwhVAlIaUUpRoA2gJQwhy+2JBmcIVQJSGlFKUaANoCUMIcvtiQZnCFUCUhpRSlGgDaAlDCNVm+Y7Ki/o/lIaUUpRoA2gJQwiY7StN0Cv1P5SGlFKUaANoCUMImO0rTdAr9T+UhpRSlGgDaAlDCCT+eX/VgvQ/lIaUUpRoA2gJQwi8HGnZl4TtP5SGlFKUaANoCUMIvBxp2ZeE7T+UhpRSlGgDaAlDCNQ9BT6iMuw/lIaUUpRoA2gJQwjUPQU+ojLsP5SGlFKUaANoCUMIIIOdjFx32T+UhpRSlGgDaAlDCCCDnYxcd9k/lIaUUpRoA2gJQwjPdxkP1/ENQJSGlFKUaANoCUMI8rzuUwBB7T+UhpRSlGgDaAlDCPK87lMAQe0/lIaUUpRoA2gJQwgr2H8eCwXjP5SGlFKUaANoCUMIK9h/HgsF4z+UhpRSlGgDaAlDCCvYfx4LBeM/lIaUUpRlLg==

$$$$
1b pose 2
     RDKit          3D

 52 54  0  0  1  0  0  0  0  0999 V2000
   16.3900  -15.7830   23.1600 N   0  0  0  0  0  0  0  0  0  0  0  0
   17.6570  -15.0120   23.1460 C   0  0  1  0  0  0  0  0  0  0  0  0
   17.4360  -13.6310   22.5680 C   0  0  0  0  0  0  0  0  0  0  0  0
   16.5060  -12.9450   23.0320 O   0  0  0  0  0  0  0  0  0  0  0  0
   18.1720  -14.9170   24.5950 C   0  0  0  0  0  0  0  0  0  0  0  0
   19.5920  -14.3710   24.7440 C   0  0  0  0  0  0  0  0  0  0  0  0
   20.6910  -14.9640   24.0890 C   0  0  0  0  0  0  0  0  0  0  0  0
   19.8220  -13.2490   25.5510 C   0  0  0  0  0  0  0  0  0  0  0  0
   21.9860  -14.4540   24.2350 C   0  0  0  0  0  0  0  0  0  0  0  0
   21.1010  -12.7410   25.6970 C   0  0  0  0  0  0  0  0  0  0  0  0
   22.1890  -13.3330   25.0460 C   0  0  0  0  0  0  0  0  0  0  0  0
   18.2450  -13.1710   21.5890 N   0  0  0  0  0  0  0  0  0  0  0  0
   18.0280  -11.8220   21.0620 C   0  0  2  0  0  0  0  0  0  0  0  0
   16.5819  -11.6231   20.4993 C   0  0  0  0  0  0  0  0  0  0  0  0
   16.0781  -12.5126   19.8062 O   0  0  0  0  0  0  0  0  0  0  0  0
   18.9440  -11.8950   19.8030 C   0  0  0  0  0  0  0  0  0  0  0  0
   20.1040  -12.7670   20.3170 C   0  0  0  0  0  0  0  0  0  0  0  0
   19.3760  -13.9390   21.0230 C   0  0  0  0  0  0  0  0  0  0  0  0
   15.9337  -10.4952   20.7979 N   0  0  0  0  0  0  0  0  0  0  0  0
   14.5568  -10.1753   20.4128 C   0  0  0  0  0  0  0  0  0  0  0  0
   13.5069  -10.3977   21.4910 C   0  0  0  0  0  0  0  0  0  0  0  0
   13.2507   -9.3824   22.4178 C   0  0  0  0  0  0  0  0  0  0  0  0
   12.2214   -9.5077   23.3457 C   0  0  0  0  0  0  0  0  0  0  0  0
   11.4130  -10.6434   23.3359 C   0  0  0  0  0  0  0  0  0  0  0  0
   11.6611  -11.6659   22.4166 C   0  0  0  0  0  0  0  0  0  0  0  0
   12.7051  -11.5446   21.4956 C   0  0  0  0  0  0  0  0  0  0  0  0
   13.8546   -8.4882   22.4280 H   0  0  0  0  0  0  0  0  0  0  0  0
   12.0667   -8.7227   24.0712 H   0  0  0  0  0  0  0  0  0  0  0  0
   10.5967  -10.7309   24.0422 H   0  0  0  0  0  0  0  0  0  0  0  0
   10.6592  -13.0763   22.4194 Cl  0  0  0  0  0  0  0  0  0  0  0  0
   12.8788  -12.3340   20.7770 H   0  0  0  0  0  0  0  0  0  0  0  0
   19.0085  -12.7762   26.0700 H   0  0  0  0  0  0  0  0  0  0  0  0
   21.2507  -11.8699   26.3204 H   0  0  0  0  0  0  0  0  0  0  0  0
   22.8194  -14.9222   23.7310 H   0  0  0  0  0  0  0  0  0  0  0  0
   23.1826  -12.9251   25.1656 H   0  0  0  0  0  0  0  0  0  0  0  0
   20.5480  -15.8425   23.4754 H   0  0  0  0  0  0  0  0  0  0  0  0
   16.4852  -16.6309   23.6945 H   0  0  0  0  0  0  0  0  0  0  0  0
   15.6579  -15.2083   23.5762 H   0  0  0  0  0  0  0  0  0  0  0  0
   16.1023  -16.0218   22.2238 H   0  0  0  0  0  0  0  0  0  0  0  0
   18.3189  -15.6340   22.5429 H   0  0  0  0  0  0  0  0  0  0  0  0
   18.2021  -15.9089   25.0514 H   0  0  0  0  0  0  0  0  0  0  0  0
   17.4891  -14.3361   25.2215 H   0  0  0  0  0  0  0  0  0  0  0  0
   18.3372  -11.0552   21.7735 H   0  0  0  0  0  0  0  0  0  0  0  0
   19.2925  -10.9089   19.5147 H   0  0  0  0  0  0  0  0  0  0  0  0
   18.4707  -12.3582   18.9363 H   0  0  0  0  0  0  0  0  0  0  0  0
   20.7136  -12.2134   21.0335 H   0  0  0  0  0  0  0  0  0  0  0  0
   20.7606  -13.1044   19.5152 H   0  0  0  0  0  0  0  0  0  0  0  0
   19.0086  -14.6806   20.3160 H   0  0  0  0  0  0  0  0  0  0  0  0
   20.0380  -14.4130   21.7362 H   0  0  0  0  0  0  0  0  0  0  0  0
   16.4251   -9.8021   21.3682 H   0  0  0  0  0  0  0  0  0  0  0  0
   14.2560  -10.6906   19.4965 H   0  0  0  0  0  0  0  0  0  0  0  0
   14.5147   -9.1118   20.1901 H   0  0  0  0  0  0  0  0  0  0  0  0
  1  2  1  0
  1 37  1  0
  1 38  1  0
  1 39  1  0
  2  3  1  0
  2  5  1  0
  2 40  1  6
  3  4  2  0
  3 12  1  0
  5  6  1  0
  5 41  1  0
  5 42  1  0
  6  7  2  0
  6  8  1  0
  7  9  1  0
  7 36  1  0
  8 10  2  0
  8 32  1  0
  9 11  2  0
  9 34  1  0
 10 11  1  0
 10 33  1  0
 11 35  1  0
 12 13  1  0
 12 18  1  0
 13 14  1  0
 13 16  1  0
 13 43  1  1
 14 15  2  0
 14 19  1  0
 16 17  1  0
 16 44  1  0
 16 45  1  0
 17 18  1  0
 17 46  1  0
 17 47  1  0
 18 48  1  0
 18 49  1  0
 19 20  1  0
 19 50  1  0
 20 21  1  0
 20 51  1  0
 20 52  1  0
 21 22  2  0
 21 26  1  0
 22 23  1  0
 22 27  1  0
 23 24  2  0
 23 28  1  0
 24 25  1  0
 24 29  1  0
 25 26  2  0
 25 30  1  0
 26 31  1  0
M  CHG  1   1   1
M  END
>  <r_exp_dg>  (18) 
-9.25606

>  <experimental dG reference units>  (18) 
kcal/mol

>  <experimental dG reference field>  (18) 
r_exp_dg

>  <kJ/mol experimental dG>  (18) 
-38.72735504

>  <kcal/mol experimental dG>  (18) 
-9.25606

>  <AmberAM1BCCCache>  (18) 
gASVNwQAAAAAAABdlCiMFm51bXB5Ll9jb3JlLm11bHRpYXJyYXmUjAZzY2FsYXKUk5SMBW51bXB5lIwFZHR5cGWUk5SMAmY4lImIh5RSlChLA4wBPJROTk5K/////0r/////SwB0lGJDCAtjxMVOyCPAlIaUUpRoA2gJQwhFgXSLqbfbP5SGlFKUaANoCUMIdDzs7v/IHkCUhpRSlGgDaAlDCKcmmuJtexjAlIaUUpRoA2gJQwjfGFde217lv5SGlFKUaANoCUMI1TZylelk/L+UhpRSlGgDaAlDCFrcxyVg4Pm/lIaUUpRoA2gJQwha3MclYOD5v5SGlFKUaANoCUMIAYYMtvYm9b+UhpRSlGgDaAlDCAGGDLb2JvW/lIaUUpRoA2gJQwjn6XU7rjXzv5SGlFKUaANoCUMIxmY2X1HnFMCUhpRSlGgDaAlDCIeTXV9tx9A/lIaUUpRoA2gJQwj6dpJ2Kn4eQJSGlFKUaANoCUMI+nerG3RtHsCUhpRSlGgDaAlDCH73bOo+oPC/lIaUUpRoA2gJQwg/VQWGETfvv5SGlFKUaANoCUMIp76dkQw26z+UhpRSlGgDaAlDCFxIy54QLhnAlIaUUpRoA2gJQwixASePxnz4P5SGlFKUaANoCUMIxbHaeKJ997+UhpRSlGgDaAlDCOp+xjJib/W/lIaUUpRoA2gJQwjc0nbdrCv2v5SGlFKUaANoCUMIri+a38+C9L+UhpRSlGgDaAlDCMVCrEEPPsY/lIaUUpRoA2gJQwgol+8/lIL2v5SGlFKUaANoCUMIrM16zNqP+j+UhpRSlGgDaAlDCPZ3nU1M8Ps/lIaUUpRoA2gJQwipf3goeaz9P5SGlFKUaANoCUMISef++VCE77+UhpRSlGgDaAlDCOI5VIRXX/w/lIaUUpRoA2gJQwhehLPm7mb5P5SGlFKUaANoCUMIGsCDHUol/T+UhpRSlGgDaAlDCBrAgx1KJf0/lIaUUpRoA2gJQwhGtLlC/Z39P5SGlFKUaANoCUMIXoSz5u5m+T+UhpRSlGgDaAlDCF5k0hAb1BVAlIaUUpRoA2gJQwheZNIQG9QVQJSGlFKUaANoCUMIXmTSEBvUFUCUhpRSlGgDaAlDCEFwwnIfNPo/lIaUUpRoA2gJQwjY9RMbN+D0P5SGlFKUaANoCUMI2PUTGzfg9D+UhpRSlGgDaAlDCKr0MgVJ7PQ/lIaUUpRoA2gJQwgLH61uPH7tP5SGlFKUaANoCUMICx+tbjx+7T+UhpRSlGgDaAlDCC3SQkeGeew/lIaUUpRoA2gJQwgt0kJHhnnsP5SGlFKUaANoCUMIPu96F2pq2z+UhpRSlGgDaAlDCD7vehdqats/lIaUUpRoA2gJQwhOXHgGmQkOQJSGlFKUaANoCUMIxAnb5H5X7j+UhpRSlGgDaAlDCMQJ2+R+V+4/lIaUUpRlLg==

$$$$
6b pose 2
     RDKit          3D

 55 57  0  0  1  0  0  0  0  0999 V2000
   16.3900  -15.7830   23.1600 N   0  0  0  0  0  0  0  0  0  0  0  0
   17.6570  -15.0120   23.1460 C   0  0  1  0  0  0  0  0  0  0  0  0
   17.4360  -13.6310   22.5680 C   0  0  0  0  0  0  0  0  0  0  0  0
   16.5060  -12.9450   23.0320 O   0  0  0  0  0  0  0  0  0  0  0  0
   18.1720  -14.9170   24.5950 C   0  0  0  0  0  0  0  0  0  0  0  0
   19.5920  -14.3710   24.7440 C   0  0  0  0  0  0  0  0  0  0  0  0
   20.6910  -14.9640   24.0890 C   0  0  0  0  0  0  0  0  0  0  0  0
   19.8220  -13.2490   25.5510 C   0  0  0  0  0  0  0  0  0  0  0  0
   21.9860  -14.4540   24.2350 C   0  0  0  0  0  0  0  0  0  0  0  0
   21.1010  -12.7410   25.6970 C   0  0  0  0  0  0  0  0  0  0  0  0
   22.1890  -13.3330   25.0460 C   0  0  0  0  0  0  0  0  0  0  0  0
   18.2450  -13.1710   21.5890 N   0  0  0  0  0  0  0  0  0  0  0  0
   18.0280  -11.8220   21.0620 C   0  0  2  0  0  0  0  0  0  0  0  0
   16.5816  -11.6353   20.4899 C   0  0  0  0  0  0  0  0  0  0  0  0
   16.1177  -12.5078   19.7504 O   0  0  0  0  0  0  0  0  0  0  0  0
   18.9440  -11.8950   19.8030 C   0  0  0  0  0  0  0  0  0  0  0  0
   20.1040  -12.7670   20.3170 C   0  0  0  0  0  0  0  0  0  0  0  0
   19.3760  -13.9390   21.0230 C   0  0  0  0  0  0  0  0  0  0  0  0
   15.8887  -10.5441   20.8300 N   0  0  0  0  0  0  0  0  0  0  0  0
   14.5050  -10.2505   20.4326 C   0  0  0  0  0  0  0  0  0  0  0  0
   13.4488  -10.4224   21.5238 C   0  0  0  0  0  0  0  0  0  0  0  0
   12.7390  -11.6294   21.5713 C   0  0  0  0  0  0  0  0  0  0  0  0
   11.8306  -11.8898   22.5940 C   0  0  0  0  0  0  0  0  0  0  0  0
   11.6409  -10.9534   23.6066 C   0  0  0  0  0  0  0  0  0  0  0  0
   12.3382   -9.7449   23.5723 C   0  0  0  0  0  0  0  0  0  0  0  0
   13.2392   -9.4718   22.5402 C   0  0  0  0  0  0  0  0  0  0  0  0
   12.8832  -12.3749   20.8039 H   0  0  0  0  0  0  0  0  0  0  0  0
   10.9405  -13.3663   22.5873 Cl  0  0  0  0  0  0  0  0  0  0  0  0
   10.9548  -11.1636   24.4178 H   0  0  0  0  0  0  0  0  0  0  0  0
   12.1858   -9.0221   24.3609 H   0  0  0  0  0  0  0  0  0  0  0  0
   14.0077   -8.1381   22.5869 C   0  0  0  0  0  0  0  0  0  0  0  0
   19.0085  -12.7762   26.0701 H   0  0  0  0  0  0  0  0  0  0  0  0
   21.2507  -11.8699   26.3204 H   0  0  0  0  0  0  0  0  0  0  0  0
   22.8194  -14.9222   23.7310 H   0  0  0  0  0  0  0  0  0  0  0  0
   23.1826  -12.9251   25.1656 H   0  0  0  0  0  0  0  0  0  0  0  0
   20.5481  -15.8425   23.4755 H   0  0  0  0  0  0  0  0  0  0  0  0
   16.4851  -16.6312   23.6941 H   0  0  0  0  0  0  0  0  0  0  0  0
   15.6579  -15.2082   23.5762 H   0  0  0  0  0  0  0  0  0  0  0  0
   16.1022  -16.0209   22.2235 H   0  0  0  0  0  0  0  0  0  0  0  0
   18.3189  -15.6340   22.5429 H   0  0  0  0  0  0  0  0  0  0  0  0
   18.2021  -15.9089   25.0514 H   0  0  0  0  0  0  0  0  0  0  0  0
   17.4891  -14.3362   25.2215 H   0  0  0  0  0  0  0  0  0  0  0  0
   18.3313  -11.0520   21.7725 H   0  0  0  0  0  0  0  0  0  0  0  0
   19.2931  -10.9088   19.5162 H   0  0  0  0  0  0  0  0  0  0  0  0
   18.4772  -12.3582   18.9329 H   0  0  0  0  0  0  0  0  0  0  0  0
   20.7134  -12.2134   21.0337 H   0  0  0  0  0  0  0  0  0  0  0  0
   20.7607  -13.1043   19.5152 H   0  0  0  0  0  0  0  0  0  0  0  0
   19.0084  -14.6804   20.3159 H   0  0  0  0  0  0  0  0  0  0  0  0
   20.0380  -14.4131   21.7361 H   0  0  0  0  0  0  0  0  0  0  0  0
   16.3604   -9.8505   21.4149 H   0  0  0  0  0  0  0  0  0  0  0  0
   14.2083  -10.7995   19.5354 H   0  0  0  0  0  0  0  0  0  0  0  0
   14.4490   -9.2049   20.1403 H   0  0  0  0  0  0  0  0  0  0  0  0
   13.6859   -7.5629   23.4550 H   0  0  0  0  0  0  0  0  0  0  0  0
   15.0770   -8.3366   22.6592 H   0  0  0  0  0  0  0  0  0  0  0  0
   13.8049   -7.5693   21.6794 H   0  0  0  0  0  0  0  0  0  0  0  0
  1  2  1  0
  1 37  1  0
  1 38  1  0
  1 39  1  0
  2  3  1  0
  2  5  1  0
  2 40  1  6
  3  4  2  0
  3 12  1  0
  5  6  1  0
  5 41  1  0
  5 42  1  0
  6  7  2  0
  6  8  1  0
  7  9  1  0
  7 36  1  0
  8 10  2  0
  8 32  1  0
  9 11  2  0
  9 34  1  0
 10 11  1  0
 10 33  1  0
 11 35  1  0
 12 13  1  0
 12 18  1  0
 13 14  1  0
 13 16  1  0
 13 43  1  1
 14 15  2  0
 14 19  1  0
 16 17  1  0
 16 44  1  0
 16 45  1  0
 17 18  1  0
 17 46  1  0
 17 47  1  0
 18 48  1  0
 18 49  1  0
 19 20  1  0
 19 50  1  0
 20 21  1  0
 20 51  1  0
 20 52  1  0
 21 22  2  0
 21 26  1  0
 22 23  1  0
 22 27  1  0
 23 24  2  0
 23 28  1  0
 24 25  1  0
 24 29  1  0
 25 26  2  0
 25 30  1  0
 26 31  1  0
 31 53  1  0
 31 54  1  0
 31 55  1  0
M  CHG  1   1   1
M  END
>  <r_exp_dg>  (19) 
-9.0369

>  <experimental dG reference units>  (19) 
kcal/mol

>  <experimental dG reference field>  (19) 
r_exp_dg

>  <kJ/mol experimental dG>  (19) 
-37.8103896

>  <kcal/mol experimental dG>  (19) 
-9.0369

>  <AmberAM1BCCCache>  (19) 
gASVcAQAAAAAAABdlCiMFm51bXB5Ll9jb3JlLm11bHRpYXJyYXmUjAZzY2FsYXKUk5SMBW51bXB5lIwFZHR5cGWUk5SMAmY4lImIh5RSlChLA4wBPJROTk5K/////0r/////SwB0lGJDCIfDKirxxCPAlIaUUpRoA2gJQwiJYMV0v8faP5SGlFKUaANoCUMIiOPARNW+HkCUhpRSlGgDaAlDCB+DaM5iYRjAlIaUUpRoA2gJQwg0F7X1kInlv5SGlFKUaANoCUMIXwHgRsCI/L+UhpRSlGgDaAlDCNN1l/587vm/lIaUUpRoA2gJQwjTdZf+fO75v5SGlFKUaANoCUMIae49tlkf9b+UhpRSlGgDaAlDCGnuPbZZH/W/lIaUUpRoA2gJQwiyHWYhjTzzv5SGlFKUaANoCUMIkSYiEqjsFMCUhpRSlGgDaAlDCFwyo1OyXtA/lIaUUpRoA2gJQwie6gbIaXYeQJSGlFKUaANoCUMI5vItYewhHsCUhpRSlGgDaAlDCGjEnMfxq/C/lIaUUpRoA2gJQwiNwWmphxTvv5SGlFKUaANoCUMIFFe9xU4o6z+UhpRSlGgDaAlDCKOjuHQXIBnAlIaUUpRoA2gJQwjbckB7CAL4P5SGlFKUaANoCUMI23JAewgC+L+UhpRSlGgDaAlDCE7NoVFPcfa/lIaUUpRoA2gJQwiJU2Mdx2G/P5SGlFKUaANoCUMIgg/aGmTN87+UhpRSlGgDaAlDCKy1DZy1Yve/lIaUUpRoA2gJQwh0tOPshFnjv5SGlFKUaANoCUMI0VtBHQf4+j+UhpRSlGgDaAlDCEr6mcMr0ey/lIaUUpRoA2gJQwhYHo2rqmv9P5SGlFKUaANoCUMIXFI5bpZY+z+UhpRSlGgDaAlDCPQO1/VQ8+m/lIaUUpRoA2gJQwgFhCMFpl35P5SGlFKUaANoCUMIcyXTLj8j/T+UhpRSlGgDaAlDCHMl0y4/I/0/lIaUUpRoA2gJQwjjFIX8Ocz9P5SGlFKUaANoCUMIBYQjBaZd+T+UhpRSlGgDaAlDCF/aWHnvyRVAlIaUUpRoA2gJQwhf2lh578kVQJSGlFKUaANoCUMIX9pYee/JFUCUhpRSlGgDaAlDCCmVBo9Dufo/lIaUUpRoA2gJQwhiJUH8ufj0P5SGlFKUaANoCUMIYiVB/Ln49D+UhpRSlGgDaAlDCHosh39OsPQ/lIaUUpRoA2gJQwggfgcxQq/tP5SGlFKUaANoCUMIIH4HMUKv7T+UhpRSlGgDaAlDCDufo5VMXew/lIaUUpRoA2gJQwg7n6OVTF3sP5SGlFKUaANoCUMI70XaO7HM2T+UhpRSlGgDaAlDCO9F2juxzNk/lIaUUpRoA2gJQwi2E6TmS9gNQJSGlFKUaANoCUMIeWZze6ig7j+UhpRSlGgDaAlDCHlmc3uooO4/lIaUUpRoA2gJQwh4GIIRq4HkP5SGlFKUaANoCUMIeBiCEauB5D+UhpRSlGgDaAlDCHgYghGrgeQ/lIaUUpRlLg==

$$$$
6e pose 1
     RDKit          3D

 52 54  0  0  1  0  0  0  0  0999 V2000
   16.3900  -15.7830   23.1600 N   0  0  0  0  0  0  0  0  0  0  0  0
   17.6570  -15.0120   23.1460 C   0  0  1  0  0  0  0  0  0  0  0  0
   17.4360  -13.6310   22.5680 C   0  0  0  0  0  0  0  0  0  0  0  0
   16.5060  -12.9450   23.0320 O   0  0  0  0  0  0  0  0  0  0  0  0
   18.1720  -14.9170   24.5950 C   0  0  0  0  0  0  0  0  0  0  0  0
   19.5920  -14.3710   24.7440 C   0  0  0  0  0  0  0  0  0  0  0  0
   20.6910  -14.9640   24.0890 C   0  0  0  0  0  0  0  0  0  0  0  0
   19.8220  -13.2490   25.5510 C   0  0  0  0  0  0  0  0  0  0  0  0
   21.9860  -14.4540   24.2350 C   0  0  0  0  0  0  0  0  0  0  0  0
   21.1010  -12.7410   25.6970 C   0  0  0  0  0  0  0  0  0  0  0  0
   22.1890  -13.3330   25.0460 C   0  0  0  0  0  0  0  0  0  0  0  0
   18.2450  -13.1710   21.5890 N   0  0  0  0  0  0  0  0  0  0  0  0
   18.0280  -11.8220   21.0620 C   0  0  2  0  0  0  0  0  0  0  0  0
   16.5816  -11.6353   20.4899 C   0  0  0  0  0  0  0  0  0  0  0  0
   16.1177  -12.5078   19.7504 O   0  0  0  0  0  0  0  0  0  0  0  0
   18.9440  -11.8950   19.8030 C   0  0  0  0  0  0  0  0  0  0  0  0
   20.1040  -12.7670   20.3170 C   0  0  0  0  0  0  0  0  0  0  0  0
   19.3760  -13.9390   21.0230 C   0  0  0  0  0  0  0  0  0  0  0  0
   15.8887  -10.5441   20.8300 N   0  0  0  0  0  0  0  0  0  0  0  0
   14.5050  -10.2505   20.4326 C   0  0  0  0  0  0  0  0  0  0  0  0
   13.4488  -10.4224   21.5238 C   0  0  0  0  0  0  0  0  0  0  0  0
   13.2461   -9.3640   22.4190 C   0  0  0  0  0  0  0  0  0  0  0  0
   12.2370   -9.4157   23.3771 C   0  0  0  0  0  0  0  0  0  0  0  0
   11.3918  -10.5205   23.4336 C   0  0  0  0  0  0  0  0  0  0  0  0
   11.5823  -11.5845   22.5508 C   0  0  0  0  0  0  0  0  0  0  0  0
   12.6029  -11.5448   21.5977 C   0  0  0  0  0  0  0  0  0  0  0  0
   13.8810   -8.4917   22.3814 H   0  0  0  0  0  0  0  0  0  0  0  0
   12.0540   -8.1138   24.4925 Cl  0  0  0  0  0  0  0  0  0  0  0  0
   10.5893  -10.5525   24.1603 H   0  0  0  0  0  0  0  0  0  0  0  0
   10.9233  -12.4394   22.6005 H   0  0  0  0  0  0  0  0  0  0  0  0
   12.7128  -12.5732   20.7566 F   0  0  0  0  0  0  0  0  0  0  0  0
   19.0085  -12.7762   26.0701 H   0  0  0  0  0  0  0  0  0  0  0  0
   21.2507  -11.8699   26.3204 H   0  0  0  0  0  0  0  0  0  0  0  0
   22.8194  -14.9222   23.7310 H   0  0  0  0  0  0  0  0  0  0  0  0
   23.1826  -12.9251   25.1656 H   0  0  0  0  0  0  0  0  0  0  0  0
   20.5481  -15.8425   23.4755 H   0  0  0  0  0  0  0  0  0  0  0  0
   16.4851  -16.6312   23.6941 H   0  0  0  0  0  0  0  0  0  0  0  0
   15.6579  -15.2082   23.5762 H   0  0  0  0  0  0  0  0  0  0  0  0
   16.1022  -16.0209   22.2235 H   0  0  0  0  0  0  0  0  0  0  0  0
   18.3189  -15.6340   22.5429 H   0  0  0  0  0  0  0  0  0  0  0  0
   18.2021  -15.9089   25.0514 H   0  0  0  0  0  0  0  0  0  0  0  0
   17.4891  -14.3362   25.2215 H   0  0  0  0  0  0  0  0  0  0  0  0
   18.3313  -11.0520   21.7725 H   0  0  0  0  0  0  0  0  0  0  0  0
   19.2931  -10.9088   19.5162 H   0  0  0  0  0  0  0  0  0  0  0  0
   18.4772  -12.3582   18.9329 H   0  0  0  0  0  0  0  0  0  0  0  0
   20.7134  -12.2134   21.0337 H   0  0  0  0  0  0  0  0  0  0  0  0
   20.7607  -13.1043   19.5152 H   0  0  0  0  0  0  0  0  0  0  0  0
   19.0084  -14.6804   20.3159 H   0  0  0  0  0  0  0  0  0  0  0  0
   20.0380  -14.4131   21.7361 H   0  0  0  0  0  0  0  0  0  0  0  0
   16.3604   -9.8505   21.4149 H   0  0  0  0  0  0  0  0  0  0  0  0
   14.2083  -10.7995   19.5354 H   0  0  0  0  0  0  0  0  0  0  0  0
   14.4490   -9.2049   20.1403 H   0  0  0  0  0  0  0  0  0  0  0  0
  1  2  1  0
  1 37  1  0
  1 38  1  0
  1 39  1  0
  2  3  1  0
  2  5  1  0
  2 40  1  6
  3  4  2  0
  3 12  1  0
  5  6  1  0
  5 41  1  0
  5 42  1  0
  6  7  2  0
  6  8  1  0
  7  9  1  0
  7 36  1  0
  8 10  2  0
  8 32  1  0
  9 11  2  0
  9 34  1  0
 10 11  1  0
 10 33  1  0
 11 35  1  0
 12 13  1  0
 12 18  1  0
 13 14  1  0
 13 16  1  0
 13 43  1  1
 14 15  2  0
 14 19  1  0
 16 17  1  0
 16 44  1  0
 16 45  1  0
 17 18  1  0
 17 46  1  0
 17 47  1  0
 18 48  1  0
 18 49  1  0
 19 20  1  0
 19 50  1  0
 20 21  1  0
 20 51  1  0
 20 52  1  0
 21 22  2  0
 21 26  1  0
 22 23  1  0
 22 27  1  0
 23 24  2  0
 23 28  1  0
 24 25  1  0
 24 29  1  0
 25 26  2  0
 25 30  1  0
 26 31  1  0
M  CHG  1   1   1
M  END
>  <r_exp_dg>  (20) 
-8.64716

>  <experimental dG reference units>  (20) 
kcal/mol

>  <experimental dG reference field>  (20) 
r_exp_dg

>  <kJ/mol experimental dG>  (20) 
-36.17971744

>  <kcal/mol experimental dG>  (20) 
-8.64716

>  <AmberAM1BCCCache>  (20) 
gASVNwQAAAAAAABdlCiMFm51bXB5Ll9jb3JlLm11bHRpYXJyYXmUjAZzY2FsYXKUk5SMBW51bXB5lIwFZHR5cGWUk5SMAmY4lImIh5RSlChLA4wBPJROTk5K/////0r/////SwB0lGJDCL/Qt5XKyiPAlIaUUpRoA2gJQwjYphOlsM3aP5SGlFKUaANoCUMI7sfFVzS/HkCUhpRSlGgDaAlDCLmeY7sDYRjAlIaUUpRoA2gJQwiPWIw66Jnlv5SGlFKUaANoCUMIh3RQUvxW/L+UhpRSlGgDaAlDCD/kg7IA7fm/lIaUUpRoA2gJQwg/5IOyAO35v5SGlFKUaANoCUMI9fVpYbEi9b+UhpRSlGgDaAlDCPX1aWGxIvW/lIaUUpRoA2gJQwgejFLVEDvzv5SGlFKUaANoCUMILUId/0jsFMCUhpRSlGgDaAlDCMYu3t9hTNE/lIaUUpRoA2gJQwiqzEmv7I4eQJSGlFKUaANoCUMI/qkqcT0OHsCUhpRSlGgDaAlDCFHOip4ll/C/lIaUUpRoA2gJQwjjOUQ0P/7uv5SGlFKUaANoCUMIuxXmgPcX6z+UhpRSlGgDaAlDCNkdTdFhbxnAlIaUUpRoA2gJQwjdELP5aY/5P5SGlFKUaANoCUMIw93ShgQ6/L+UhpRSlGgDaAlDCNEyiXt1qvC/lIaUUpRoA2gJQwgx1W/AXVOoP5SGlFKUaANoCUMIU5eHWMW98L+UhpRSlGgDaAlDCB/glLLgIfy/lIaUUpRoA2gJQwjS6WiOdgj3P5SGlFKUaANoCUMIvaEU8f39/T+UhpRSlGgDaAlDCKfazNO6lOi/lIaUUpRoA2gJQwgUwYOBxMj+P5SGlFKUaANoCUMIUioGtsyr/j+UhpRSlGgDaAlDCLO5356Fn/u/lIaUUpRoA2gJQwiZFTdRIl/5P5SGlFKUaANoCUMI4x2ng+cf/T+UhpRSlGgDaAlDCOMdp4PnH/0/lIaUUpRoA2gJQwgyqxygbp39P5SGlFKUaANoCUMImRU3USJf+T+UhpRSlGgDaAlDCLH1VJtJxhVAlIaUUpRoA2gJQwix9VSbScYVQJSGlFKUaANoCUMIsfVUm0nGFUCUhpRSlGgDaAlDCHz0muwXsfo/lIaUUpRoA2gJQwja5hELAhz1P5SGlFKUaANoCUMI2uYRCwIc9T+UhpRSlGgDaAlDCNFUGJfCzvQ/lIaUUpRoA2gJQwjUlyYayhLuP5SGlFKUaANoCUMI1JcmGsoS7j+UhpRSlGgDaAlDCBzHToX9L+w/lIaUUpRoA2gJQwgcx06F/S/sP5SGlFKUaANoCUMIvScqj1K/2T+UhpRSlGgDaAlDCL0nKo9Sv9k/lIaUUpRoA2gJQwg5x9uCTLIOQJSGlFKUaANoCUMIQaSFTK+e7z+UhpRSlGgDaAlDCEGkhUyvnu8/lIaUUpRlLg==

$$$$
1d pose 2
     RDKit          3D

 52 54  0  0  1  0  0  0  0  0999 V2000
   16.3900  -15.7830   23.1600 N   0  0  0  0  0  0  0  0  0  0  0  0
   17.6570  -15.0120   23.1460 C   0  0  1  0  0  0  0  0  0  0  0  0
   17.4360  -13.6310   22.5680 C   0  0  0  0  0  0  0  0  0  0  0  0
   16.5060  -12.9450   23.0320 O   0  0  0  0  0  0  0  0  0  0  0  0
   18.1720  -14.9170   24.5950 C   0  0  0  0  0  0  0  0  0  0  0  0
   19.5920  -14.3710   24.7440 C   0  0  0  0  0  0  0  0  0  0  0  0
   20.6910  -14.9640   24.0890 C   0  0  0  0  0  0  0  0  0  0  0  0
   19.8220  -13.2490   25.5510 C   0  0  0  0  0  0  0  0  0  0  0  0
   21.9860  -14.4540   24.2350 C   0  0  0  0  0  0  0  0  0  0  0  0
   21.1010  -12.7410   25.6970 C   0  0  0  0  0  0  0  0  0  0  0  0
   22.1890  -13.3330   25.0460 C   0  0  0  0  0  0  0  0  0  0  0  0
   18.2450  -13.1710   21.5890 N   0  0  0  0  0  0  0  0  0  0  0  0
   18.0280  -11.8220   21.0620 C   0  0  2  0  0  0  0  0  0  0  0  0
   16.5844  -11.6366   20.4920 C   0  0  0  0  0  0  0  0  0  0  0  0
   16.0936  -12.5326   19.7974 O   0  0  0  0  0  0  0  0  0  0  0  0
   18.9440  -11.8950   19.8030 C   0  0  0  0  0  0  0  0  0  0  0  0
   20.1040  -12.7670   20.3170 C   0  0  0  0  0  0  0  0  0  0  0  0
   19.3760  -13.9390   21.0230 C   0  0  0  0  0  0  0  0  0  0  0  0
   15.9216  -10.5167   20.7857 N   0  0  0  0  0  0  0  0  0  0  0  0
   14.5421  -10.2284   20.3862 C   0  0  0  0  0  0  0  0  0  0  0  0
   13.5006  -10.4150   21.4755 C   0  0  0  0  0  0  0  0  0  0  0  0
   13.2723   -9.3731   22.3762 C   0  0  0  0  0  0  0  0  0  0  0  0
   12.2471   -9.4550   23.3107 C   0  0  0  0  0  0  0  0  0  0  0  0
   11.4189  -10.5766   23.3417 C   0  0  0  0  0  0  0  0  0  0  0  0
   11.6435  -11.6276   22.4488 C   0  0  0  0  0  0  0  0  0  0  0  0
   12.6814  -11.5488   21.5160 C   0  0  0  0  0  0  0  0  0  0  0  0
   13.8938   -8.4908   22.3557 H   0  0  0  0  0  0  0  0  0  0  0  0
   12.1176   -8.6400   24.0074 H   0  0  0  0  0  0  0  0  0  0  0  0
   10.6057  -10.6321   24.0554 H   0  0  0  0  0  0  0  0  0  0  0  0
   10.3983  -13.3176   22.5060 I   0  0  0  0  0  0  0  0  0  0  0  0
   12.8351  -12.3588   20.8164 H   0  0  0  0  0  0  0  0  0  0  0  0
   19.0085  -12.7762   26.0700 H   0  0  0  0  0  0  0  0  0  0  0  0
   21.2507  -11.8699   26.3204 H   0  0  0  0  0  0  0  0  0  0  0  0
   22.8194  -14.9222   23.7310 H   0  0  0  0  0  0  0  0  0  0  0  0
   23.1826  -12.9251   25.1656 H   0  0  0  0  0  0  0  0  0  0  0  0
   20.5480  -15.8425   23.4754 H   0  0  0  0  0  0  0  0  0  0  0  0
   16.4851  -16.6309   23.6946 H   0  0  0  0  0  0  0  0  0  0  0  0
   15.6579  -15.2082   23.5761 H   0  0  0  0  0  0  0  0  0  0  0  0
   16.1023  -16.0218   22.2238 H   0  0  0  0  0  0  0  0  0  0  0  0
   18.3189  -15.6340   22.5429 H   0  0  0  0  0  0  0  0  0  0  0  0
   18.2020  -15.9089   25.0514 H   0  0  0  0  0  0  0  0  0  0  0  0
   17.4891  -14.3361   25.2215 H   0  0  0  0  0  0  0  0  0  0  0  0
   18.3314  -11.0523   21.7729 H   0  0  0  0  0  0  0  0  0  0  0  0
   19.2928  -10.9088   19.5155 H   0  0  0  0  0  0  0  0  0  0  0  0
   18.4736  -12.3581   18.9346 H   0  0  0  0  0  0  0  0  0  0  0  0
   20.7135  -12.2134   21.0336 H   0  0  0  0  0  0  0  0  0  0  0  0
   20.7607  -13.1043   19.5153 H   0  0  0  0  0  0  0  0  0  0  0  0
   19.0086  -14.6805   20.3159 H   0  0  0  0  0  0  0  0  0  0  0  0
   20.0380  -14.4130   21.7362 H   0  0  0  0  0  0  0  0  0  0  0  0
   16.3977   -9.8156   21.3583 H   0  0  0  0  0  0  0  0  0  0  0  0
   14.2419  -10.7792   19.4905 H   0  0  0  0  0  0  0  0  0  0  0  0
   14.4837   -9.1753   20.1263 H   0  0  0  0  0  0  0  0  0  0  0  0
  1  2  1  0
  1 37  1  0
  1 38  1  0
  1 39  1  0
  2  3  1  0
  2  5  1  0
  2 40  1  6
  3  4  2  0
  3 12  1  0
  5  6  1  0
  5 41  1  0
  5 42  1  0
  6  7  2  0
  6  8  1  0
  7  9  1  0
  7 36  1  0
  8 10  2  0
  8 32  1  0
  9 11  2  0
  9 34  1  0
 10 11  1  0
 10 33  1  0
 11 35  1  0
 12 13  1  0
 12 18  1  0
 13 14  1  0
 13 16  1  0
 13 43  1  1
 14 15  2  0
 14 19  1  0
 16 17  1  0
 16 44  1  0
 16 45  1  0
 17 18  1  0
 17 46  1  0
 17 47  1  0
 18 48  1  0
 18 49  1  0
 19 20  1  0
 19 50  1  0
 20 21  1  0
 20 51  1  0
 20 52  1  0
 21 22  2  0
 21 26  1  0
 22 23  1  0
 22 27  1  0
 23 24  2  0
 23 28  1  0
 24 25  1  0
 24 29  1  0
 25 26  2  0
 25 30  1  0
 26 31  1  0
M  CHG  1   1   1
M  END
>  <r_exp_dg>  (21) 
-8.60129

>  <experimental dG reference units>  (21) 
kcal/mol

>  <experimental dG reference field>  (21) 
r_exp_dg

>  <kJ/mol experimental dG>  (21) 
-35.98779736

>  <kcal/mol experimental dG>  (21) 
-8.60129

>  <AmberAM1BCCCache>  (21) 
gASVNwQAAAAAAABdlCiMFm51bXB5Ll9jb3JlLm11bHRpYXJyYXmUjAZzY2FsYXKUk5SMBW51bXB5lIwFZHR5cGWUk5SMAmY4lImIh5RSlChLA4wBPJROTk5K/////0r/////SwB0lGJDCDPnbxuTyCPAlIaUUpRoA2gJQwg1/APWHq/bP5SGlFKUaANoCUMIQ83UOkvNHkCUhpRSlGgDaAlDCK5IIZDBehjAlIaUUpRoA2gJQwhnWw+5IGPlv5SGlFKUaANoCUMIGVjOQgxn/L+UhpRSlGgDaAlDCJ/9I9OC4vm/lIaUUpRoA2gJQwif/SPTguL5v5SGlFKUaANoCUMIRadoYxkp9b+UhpRSlGgDaAlDCEWnaGMZKfW/lIaUUpRoA2gJQwgsC9Lo0Dfzv5SGlFKUaANoCUMI0Ii9DKXmFMCUhpRSlGgDaAlDCAXO4bQRRtE/lIaUUpRoA2gJQwjRu8vRAnoeQJSGlFKUaANoCUMIlWbSxDFvHsCUhpRSlGgDaAlDCCTkh33dsPC/lIaUUpRoA2gJQwiR9zdm7n7vv5SGlFKUaANoCUMI3UlmSB8o6z+UhpRSlGgDaAlDCB2Egk4vLBnAlIaUUpRoA2gJQwjSdIaBv6/4P5SGlFKUaANoCUMId8U/dzQV+r+UhpRSlGgDaAlDCA2M6NJyKfK/lIaUUpRoA2gJQwhlu6JwK3H4v5SGlFKUaANoCUMIsarNPjh67r+UhpRSlGgDaAlDCEoPUXKv6Ms/lIaUUpRoA2gJQwhn3wMmJeHwv5SGlFKUaANoCUMIBBhjf5xY+j+UhpRSlGgDaAlDCNHvgJf98vs/lIaUUpRoA2gJQwiRbKiBfxn9P5SGlFKUaANoCUMITbRc7Za5+L+UhpRSlGgDaAlDCDqEPDcZKPw/lIaUUpRoA2gJQwgZY1c5zGT5P5SGlFKUaANoCUMI1Z4ncCcj/T+UhpRSlGgDaAlDCNWeJ3AnI/0/lIaUUpRoA2gJQwgCk12V2pv9P5SGlFKUaANoCUMIGWNXOcxk+T+UhpRSlGgDaAlDCA1ce2WS0xVAlIaUUpRoA2gJQwgNXHtlktMVQJSGlFKUaANoCUMIDVx7ZZLTFUCUhpRSlGgDaAlDCP1OZsX8Mfo/lIaUUpRoA2gJQwiU1LdtFN70P5SGlFKUaANoCUMIlNS3bRTe9D+UhpRSlGgDaAlDCIVsFk/67vQ/lIaUUpRoA2gJQwhCqnUlT3DtP5SGlFKUaANoCUMIQqp1JU9w7T+UhpRSlGgDaAlDCAwkRoxcquw/lIaUUpRoA2gJQwgMJEaMXKrsP5SGlFKUaANoCUMIb5yJUIdr2z+UhpRSlGgDaAlDCG+ciVCHa9s/lIaUUpRoA2gJQwgafyq0HQYOQJSGlFKUaANoCUMIejClvkE27j+UhpRSlGgDaAlDCHowpb5BNu4/lIaUUpRlLg==

$$$$
