11a
     RDKit          3D

 38 40  0  0  1  0  0  0  0  0999 V2000
   20.0743   -4.3052    4.2275 F   0  0  0  0  0  0  0  0  0  0  0  0
   19.7088   -3.8864    2.9994 C   0  0  0  0  0  0  0  0  0  0  0  0
   18.6984   -2.9203    2.7966 C   0  0  0  0  0  0  0  0  0  0  0  0
   18.0413   -2.2065    3.8280 N   0  0  0  0  0  0  0  0  0  0  0  0
   18.4709   -1.9264    5.0649 C   0  0  0  0  0  0  0  0  0  0  0  0
   19.5786   -2.2148    5.5014 O   0  0  0  0  0  0  0  0  0  0  0  0
   17.5633   -1.2335    5.7645 N   0  0  0  0  0  0  0  0  0  0  0  0
   17.7163   -0.7294    7.0778 C   0  0  0  0  0  0  0  0  0  0  0  0
   16.8319    0.2636    7.5377 C   0  0  0  0  0  0  0  0  0  0  0  0
   15.8090    0.6979    6.7175 O   0  0  0  0  0  0  0  0  0  0  0  0
   15.3427    1.9920    6.7545 C   0  0  0  0  0  0  0  0  0  0  0  0
   15.7526    2.9124    5.7733 C   0  0  0  0  0  0  0  0  0  0  0  0
   15.2565    4.2275    5.8019 C   0  0  0  0  0  0  0  0  0  0  0  0
   14.3482    4.6248    6.7968 C   0  0  0  0  0  0  0  0  0  0  0  0
   13.9183    3.7059    7.7584 C   0  0  0  0  0  0  0  0  0  0  0  0
   14.4052    2.3955    7.7249 C   0  0  0  0  0  0  0  0  0  0  0  0
   16.9620    0.8356    8.7561 N   0  0  0  0  0  0  0  0  0  0  0  0
   17.9393    0.4096    9.5751 C   0  0  0  0  0  0  0  0  0  0  0  0
   18.8246   -0.6142    9.2296 C   0  0  0  0  0  0  0  0  0  0  0  0
   18.7089   -1.1950    7.9620 C   0  0  0  0  0  0  0  0  0  0  0  0
   18.2609   -2.6721    1.4902 C   0  0  0  0  0  0  0  0  0  0  0  0
   18.8565   -3.3245    0.4015 C   0  0  0  0  0  0  0  0  0  0  0  0
   19.8908   -4.2453    0.6118 C   0  0  0  0  0  0  0  0  0  0  0  0
   20.4466   -4.8970   -0.4355 F   0  0  0  0  0  0  0  0  0  0  0  0
   20.3195   -4.5168    1.9100 C   0  0  0  0  0  0  0  0  0  0  0  0
   17.1579   -1.7934    3.5719 H   0  0  0  0  0  0  0  0  0  0  0  0
   16.7486   -0.9181    5.2596 H   0  0  0  0  0  0  0  0  0  0  0  0
   16.4501    2.6104    5.0100 H   0  0  0  0  0  0  0  0  0  0  0  0
   15.5709    4.9338    5.0459 H   0  0  0  0  0  0  0  0  0  0  0  0
   13.9695    5.6354    6.8140 H   0  0  0  0  0  0  0  0  0  0  0  0
   13.2076    4.0026    8.5178 H   0  0  0  0  0  0  0  0  0  0  0  0
   14.0600    1.6939    8.4691 H   0  0  0  0  0  0  0  0  0  0  0  0
   18.0050    0.8921   10.5378 H   0  0  0  0  0  0  0  0  0  0  0  0
   19.5865   -0.9407    9.9190 H   0  0  0  0  0  0  0  0  0  0  0  0
   19.3917   -1.9870    7.6904 H   0  0  0  0  0  0  0  0  0  0  0  0
   17.4769   -1.9528    1.3148 H   0  0  0  0  0  0  0  0  0  0  0  0
   18.5165   -3.1143   -0.6012 H   0  0  0  0  0  0  0  0  0  0  0  0
   21.1073   -5.2403    2.0789 H   0  0  0  0  0  0  0  0  0  0  0  0
  1  2  1  0
  2 25  2  0
  2  3  1  0
  3  4  1  0
  3 21  2  0
  4  5  1  0
  4 26  1  0
  5  6  2  0
  5  7  1  0
  7  8  1  0
  7 27  1  0
  8 20  2  0
  8  9  1  0
  9 10  1  0
  9 17  2  0
 10 11  1  0
 11 16  1  0
 11 12  2  0
 12 13  1  0
 12 28  1  0
 13 14  2  0
 13 29  1  0
 14 15  1  0
 14 30  1  0
 15 16  2  0
 15 31  1  0
 16 32  1  0
 17 18  1  0
 18 19  2  0
 18 33  1  0
 19 20  1  0
 19 34  1  0
 20 35  1  0
 21 22  1  0
 21 36  1  0
 22 23  2  0
 22 37  1  0
 23 24  1  0
 23 25  1  0
 25 38  1  0
M  END
>  <r_exp_dg>  (1) 
-7.7748

>  <AmberAM1BCCCache>  (1) 
gASVLQMAAAAAAABdlCiMFm51bXB5Ll9jb3JlLm11bHRpYXJyYXmUjAZzY2FsYXKUk5SMBW51bXB5lIwFZHR5cGWUk5SMAmY4lImIh5RSlChLA4wBPJROTk5K/////0r/////SwB0lGJDCLY7I6i99fq/lIaUUpRoA2gJQwi8GZGuV6TyP5SGlFKUaANoCUMIupDeiD73yD+UhpRSlGgDaAlDCGUv8xJnRRXAlIaUUpRoA2gJQwhwAOSIBAMiQJSGlFKUaANoCUMI5G+QOr3oHMCUhpRSlGgDaAlDCH1D5IY2eBTAlIaUUpRoA2gJQwhyn3KgitHrv5SGlFKUaANoCUMItVJKPZ2nG0CUhpRSlGgDaAlDCJ4lfOsImRLAlIaUUpRoA2gJQwhuIWyJhGD0P5SGlFKUaANoCUMIIh7h6zoO+L+UhpRSlGgDaAlDCAxLRyuSQ/a/lIaUUpRoA2gJQwhm/wazDEj5v5SGlFKUaANoCUMIDEtHK5JD9r+UhpRSlGgDaAlDCCIe4es6Dvi/lIaUUpRoA2gJQwizFhnJfkogwJSGlFKUaANoCUMIAIx9fFQ+E0CUhpRSlGgDaAlDCFDHr50zFAjAlIaUUpRoA2gJQwjALOi8EU/sv5SGlFKUaANoCUMIuMozZgMs8b+UhpRSlGgDaAlDCKSSKtZ8nv2/lIaUUpRoA2gJQwhqghC+TK34P5SGlFKUaANoCUMIRGbHuzhD+b+UhpRSlGgDaAlDCDYOIyW+KgHAlIaUUpRoA2gJQwgdUE0ich8OQJSGlFKUaANoCUMIqEZFcwGADkCUhpRSlGgDaAlDCOPPDz2btvs/lIaUUpRoA2gJQwjnA7z/hqP5P5SGlFKUaANoCUMIoghAVz9z+T+UhpRSlGgDaAlDCOcDvP+Go/k/lIaUUpRoA2gJQwjjzw89m7b7P5SGlFKUaANoCUMI8FumLJ7p1T+UhpRSlGgDaAlDCPm8/965d/w/lIaUUpRoA2gJQwinnglSpMcAQJSGlFKUaANoCUMIj5fDzg8QAUCUhpRSlGgDaAlDCOCbY3qvyf0/lIaUUpRoA2gJQwhScb9mNHz/P5SGlFKUZS4=

>  <experimental dG reference units>  (1) 
kcal/mol

>  <experimental dG reference field>  (1) 
r_exp_dg

>  <kJ/mol experimental dG>  (1) 
-32.5297632

>  <kcal/mol experimental dG>  (1) 
-7.774799999999999

$$$$
6g
     RDKit          3D

 41 43  0  0  1  0  0  0  0  0999 V2000
   20.4182   -5.2809   -0.6699 Cl  0  0  0  0  0  0  0  0  0  0  0  0
   19.8384   -4.3124    0.6275 C   0  0  0  0  0  0  0  0  0  0  0  0
   20.2999   -4.5390    1.9291 C   0  0  0  0  0  0  0  0  0  0  0  0
   19.7240   -3.8543    3.0123 C   0  0  0  0  0  0  0  0  0  0  0  0
   18.6932   -2.9140    2.7943 C   0  0  0  0  0  0  0  0  0  0  0  0
   18.0387   -2.2002    3.8271 N   0  0  0  0  0  0  0  0  0  0  0  0
   18.4809   -1.9483    5.0683 C   0  0  0  0  0  0  0  0  0  0  0  0
   19.5812   -2.2867    5.4873 O   0  0  0  0  0  0  0  0  0  0  0  0
   17.5932   -1.2653    5.8057 N   0  0  0  0  0  0  0  0  0  0  0  0
   17.7968   -0.7601    7.1196 C   0  0  0  0  0  0  0  0  0  0  0  0
   17.0277    0.3222    7.5609 C   0  0  0  0  0  0  0  0  0  0  0  0
   15.8680    0.5624    6.9052 O   0  0  0  0  0  0  0  0  0  0  0  0
   15.3470    1.8093    6.8815 C   0  0  0  0  0  0  0  0  0  0  0  0
   15.8239    2.6534    5.8881 C   0  0  0  0  0  0  0  0  0  0  0  0
   15.2273    3.8931    5.7037 C   0  0  0  0  0  0  0  0  0  0  0  0
   15.7577    4.7265    4.5710 C   0  0  0  0  0  0  0  0  0  0  0  0
   15.0599    5.8462    4.4078 F   0  0  0  0  0  0  0  0  0  0  0  0
   17.0271    5.0261    4.8292 F   0  0  0  0  0  0  0  0  0  0  0  0
   15.7099    4.0075    3.4547 F   0  0  0  0  0  0  0  0  0  0  0  0
   14.1674    4.2948    6.5446 C   0  0  0  0  0  0  0  0  0  0  0  0
   13.7006    3.4485    7.5681 C   0  0  0  0  0  0  0  0  0  0  0  0
   14.2885    2.1845    7.7306 C   0  0  0  0  0  0  0  0  0  0  0  0
   17.2035    0.9700    8.7276 N   0  0  0  0  0  0  0  0  0  0  0  0
   18.0860    0.4457    9.5889 C   0  0  0  0  0  0  0  0  0  0  0  0
   18.8127   -0.7230    9.3211 C   0  0  0  0  0  0  0  0  0  0  0  0
   18.6861   -1.3226    8.0576 C   0  0  0  0  0  0  0  0  0  0  0  0
   18.2550   -2.6757    1.4831 C   0  0  0  0  0  0  0  0  0  0  0  0
   18.8344   -3.3584    0.4019 C   0  0  0  0  0  0  0  0  0  0  0  0
   21.0731   -5.2754    2.1047 H   0  0  0  0  0  0  0  0  0  0  0  0
   20.0749   -4.0837    4.0049 H   0  0  0  0  0  0  0  0  0  0  0  0
   17.1565   -1.7836    3.5707 H   0  0  0  0  0  0  0  0  0  0  0  0
   16.7628   -0.9485    5.3242 H   0  0  0  0  0  0  0  0  0  0  0  0
   16.6257    2.3293    5.2397 H   0  0  0  0  0  0  0  0  0  0  0  0
   13.7002    5.2566    6.3951 H   0  0  0  0  0  0  0  0  0  0  0  0
   12.8870    3.7592    8.2093 H   0  0  0  0  0  0  0  0  0  0  0  0
   13.9252    1.5038    8.4891 H   0  0  0  0  0  0  0  0  0  0  0  0
   18.1988    0.9514   10.5378 H   0  0  0  0  0  0  0  0  0  0  0  0
   19.4913   -1.1350   10.0585 H   0  0  0  0  0  0  0  0  0  0  0  0
   19.2622   -2.2104    7.8485 H   0  0  0  0  0  0  0  0  0  0  0  0
   17.4648   -1.9648    1.2993 H   0  0  0  0  0  0  0  0  0  0  0  0
   18.4706   -3.1804   -0.5993 H   0  0  0  0  0  0  0  0  0  0  0  0
  1  2  1  0
  2 28  2  0
  2  3  1  0
  3  4  2  0
  3 29  1  0
  4  5  1  0
  4 30  1  0
  5  6  1  0
  5 27  2  0
  6  7  1  0
  6 31  1  0
  7  8  2  0
  7  9  1  0
  9 10  1  0
  9 32  1  0
 10 26  2  0
 10 11  1  0
 11 12  1  0
 11 23  2  0
 12 13  1  0
 13 22  1  0
 13 14  2  0
 14 15  1  0
 14 33  1  0
 15 16  1  0
 15 20  2  0
 16 17  1  0
 16 18  1  0
 16 19  1  0
 20 21  1  0
 20 34  1  0
 21 22  2  0
 21 35  1  0
 22 36  1  0
 23 24  1  0
 24 25  2  0
 24 37  1  0
 25 26  1  0
 25 38  1  0
 26 39  1  0
 27 28  1  0
 27 40  1  0
 28 41  1  0
M  END
>  <r_exp_dg>  (2) 
-9.76958

>  <AmberAM1BCCCache>  (2) 
gASVZgMAAAAAAABdlCiMFm51bXB5Ll9jb3JlLm11bHRpYXJyYXmUjAZzY2FsYXKUk5SMBW51bXB5lIwFZHR5cGWUk5SMAmY4lImIh5RSlChLA4wBPJROTk5K/////0r/////SwB0lGJDCHVv4JA9bvG/lIaUUpRoA2gJQwhZOiiYcuirv5SGlFKUaANoCUMICN57dJYl87+UhpRSlGgDaAlDCFT2NrRNY/y/lIaUUpRoA2gJQwjIXVk12vrnP5SGlFKUaANoCUMI/7VW97CxFcCUhpRSlGgDaAlDCKO2XB5CDyJAlIaUUpRoA2gJQwisBIAlMMQcwJSGlFKUaANoCUMIdcwJl1zMFMCUhpRSlGgDaAlDCGWRL3CnqOe/lIaUUpRoA2gJQwjtygVDZUcbQJSGlFKUaANoCUMIDLipqp+MEsCUhpRSlGgDaAlDCDPhvTuaMfQ/lIaUUpRoA2gJQwiQYQTgYLHvv5SGlFKUaANoCUMIhJkTsioM/r+UhpRSlGgDaAlDCOLXi/IhOSBAlIaUUpRoA2gJQwiOhJ1N0kAGwJSGlFKUaANoCUMIjoSdTdJABsCUhpRSlGgDaAlDCI6EnU3SQAbAlIaUUpRoA2gJQwgNLH4Y+Ajwv5SGlFKUaANoCUMIXnjlGpsz97+UhpRSlGgDaAlDCDkGXlw1i/G/lIaUUpRoA2gJQwhd3Aznf2ggwJSGlFKUaANoCUMI8fsR6ZkyE0CUhpRSlGgDaAlDCJ71EsvRmgfAlIaUUpRoA2gJQwistkwHV0zsv5SGlFKUaANoCUMIVPY2tE1j/L+UhpRSlGgDaAlDCAjee3SWJfO/lIaUUpRoA2gJQwhieo9l82D8P5SGlFKUaANoCUMIG2W92zU6/T+UhpRSlGgDaAlDCNA7QNZJjw1AlIaUUpRoA2gJQwjmKDB4aFAOQJSGlFKUaANoCUMIjToZyLrs/j+UhpRSlGgDaAlDCNVpQTPuCf0/lIaUUpRoA2gJQwjuit2X+Lf7P5SGlFKUaANoCUMIplu1LMWa/T+UhpRSlGgDaAlDCEYivdtQcdc/lIaUUpRoA2gJQwiQbsWKptn8P5SGlFKUaANoCUMIcnfsp5r4AECUhpRSlGgDaAlDCBtlvds1Ov0/lIaUUpRoA2gJQwhieo9l82D8P5SGlFKUZS4=

>  <experimental dG reference units>  (2) 
kcal/mol

>  <experimental dG reference field>  (2) 
r_exp_dg

>  <kJ/mol experimental dG>  (2) 
-40.87592272

>  <kcal/mol experimental dG>  (2) 
-9.76958

$$$$
6a
     RDKit          3D

 41 43  0  0  1  0  0  0  0  0999 V2000
   16.6942    5.6334    4.9273 F   0  0  0  0  0  0  0  0  0  0  0  0
   15.7401    4.8179    4.4792 C   0  0  0  0  0  0  0  0  0  0  0  0
   16.2532    4.0557    3.5082 F   0  0  0  0  0  0  0  0  0  0  0  0
   14.7334    5.5351    3.9788 F   0  0  0  0  0  0  0  0  0  0  0  0
   15.2519    3.9534    5.6209 C   0  0  0  0  0  0  0  0  0  0  0  0
   15.8542    2.7024    5.8035 C   0  0  0  0  0  0  0  0  0  0  0  0
   15.3659    1.8438    6.7921 C   0  0  0  0  0  0  0  0  0  0  0  0
   15.8797    0.5942    6.8018 O   0  0  0  0  0  0  0  0  0  0  0  0
   17.0053    0.3333    7.5146 C   0  0  0  0  0  0  0  0  0  0  0  0
   17.7753   -0.7580    7.0901 C   0  0  0  0  0  0  0  0  0  0  0  0
   17.5941   -1.2649    5.7808 N   0  0  0  0  0  0  0  0  0  0  0  0
   18.4938   -1.9473    5.0592 C   0  0  0  0  0  0  0  0  0  0  0  0
   19.6188   -2.2457    5.4763 O   0  0  0  0  0  0  0  0  0  0  0  0
   18.0441   -2.1962    3.8186 N   0  0  0  0  0  0  0  0  0  0  0  0
   18.6963   -2.9178    2.7899 C   0  0  0  0  0  0  0  0  0  0  0  0
   19.7269   -3.8572    3.0129 C   0  0  0  0  0  0  0  0  0  0  0  0
   20.3325   -4.5117    1.9220 C   0  0  0  0  0  0  0  0  0  0  0  0
   19.9026   -4.2452    0.6128 C   0  0  0  0  0  0  0  0  0  0  0  0
   18.8580   -3.3326    0.3962 C   0  0  0  0  0  0  0  0  0  0  0  0
   18.2500   -2.6761    1.4858 C   0  0  0  0  0  0  0  0  0  0  0  0
   18.6339   -1.3486    8.0486 C   0  0  0  0  0  0  0  0  0  0  0  0
   18.7144   -0.7635    9.3259 C   0  0  0  0  0  0  0  0  0  0  0  0
   18.0117    0.4263    9.5795 C   0  0  0  0  0  0  0  0  0  0  0  0
   17.1552    0.9642    8.6956 N   0  0  0  0  0  0  0  0  0  0  0  0
   14.3215    2.2242    7.6580 C   0  0  0  0  0  0  0  0  0  0  0  0
   13.7408    3.4917    7.5104 C   0  0  0  0  0  0  0  0  0  0  0  0
   14.1960    4.3444    6.4773 C   0  0  0  0  0  0  0  0  0  0  0  0
   16.6426    2.3577    5.1543 H   0  0  0  0  0  0  0  0  0  0  0  0
   16.7589   -0.9573    5.3015 H   0  0  0  0  0  0  0  0  0  0  0  0
   17.1501   -1.7892    3.5794 H   0  0  0  0  0  0  0  0  0  0  0  0
   20.0716   -4.0988    4.0010 H   0  0  0  0  0  0  0  0  0  0  0  0
   21.1223   -5.2206    2.0935 H   0  0  0  0  0  0  0  0  0  0  0  0
   20.3633   -4.7496   -0.2196 H   0  0  0  0  0  0  0  0  0  0  0  0
   18.5295   -3.1248   -0.6081 H   0  0  0  0  0  0  0  0  0  0  0  0
   17.4612   -1.9660    1.2960 H   0  0  0  0  0  0  0  0  0  0  0  0
   19.2092   -2.2466    7.8467 H   0  0  0  0  0  0  0  0  0  0  0  0
   19.3620   -1.1977   10.0721 H   0  0  0  0  0  0  0  0  0  0  0  0
   18.0856    0.8891   10.5448 H   0  0  0  0  0  0  0  0  0  0  0  0
   13.9505    1.5392    8.4082 H   0  0  0  0  0  0  0  0  0  0  0  0
   12.9287    3.8106    8.1629 H   0  0  0  0  0  0  0  0  0  0  0  0
   13.7526    5.3124    6.3572 H   0  0  0  0  0  0  0  0  0  0  0  0
  1  2  1  0
  2  3  1  0
  2  4  1  0
  2  5  1  0
  5 27  2  0
  5  6  1  0
  6  7  2  0
  6 28  1  0
  7  8  1  0
  7 25  1  0
  8  9  1  0
  9 24  2  0
  9 10  1  0
 10 11  1  0
 10 21  2  0
 11 12  1  0
 11 29  1  0
 12 13  2  0
 12 14  1  0
 14 15  1  0
 14 30  1  0
 15 20  1  0
 15 16  2  0
 16 17  1  0
 16 31  1  0
 17 18  2  0
 17 32  1  0
 18 19  1  0
 18 33  1  0
 19 20  2  0
 19 34  1  0
 20 35  1  0
 21 22  1  0
 21 36  1  0
 22 23  2  0
 22 37  1  0
 23 24  1  0
 23 38  1  0
 25 26  2  0
 25 39  1  0
 26 27  1  0
 26 40  1  0
 27 41  1  0
M  END
>  <r_exp_dg>  (3) 
-9.23186

>  <AmberAM1BCCCache>  (3) 
gASVZgMAAAAAAABdlCiMFm51bXB5Ll9jb3JlLm11bHRpYXJyYXmUjAZzY2FsYXKUk5SMBW51bXB5lIwFZHR5cGWUk5SMAmY4lImIh5RSlChLA4wBPJROTk5K/////0r/////SwB0lGJDCNFQhScYRwbAlIaUUpRoA2gJQwhbSZb0kjkgQJSGlFKUaANoCUMI0VCFJxhHBsCUhpRSlGgDaAlDCNFQhScYRwbAlIaUUpRoA2gJQwi6DcChogj+v5SGlFKUaANoCUMI+kldv1Cq77+UhpRSlGgDaAlDCENojfRpZfQ/lIaUUpRoA2gJQwgZ1ZSmvYsSwJSGlFKUaANoCUMIPbDcciMwG0CUhpRSlGgDaAlDCC6WoFzpf+a/lIaUUpRoA2gJQwgk5zJnnuMUwJSGlFKUaANoCUMISylINqEDIkCUhpRSlGgDaAlDCIsgigtgzxzAlIaUUpRoA2gJQwhp1QMfq5gVwJSGlFKUaANoCUMIG64wcI6+5T+UhpRSlGgDaAlDCEJVERoIOf2/lIaUUpRoA2gJQwjGLsrTJ4z0v5SGlFKUaANoCUMIXHatfhLn+7+UhpRSlGgDaAlDCMYuytMnjPS/lIaUUpRoA2gJQwhCVREaCDn9v5SGlFKUaANoCUMILYyViGUG7b+UhpRSlGgDaAlDCBQyq+7pgAfAlIaUUpRoA2gJQwhB4egYWBsTQJSGlFKUaANoCUMI5GoC5Q5oIMCUhpRSlGgDaAlDCLR1hvT0t/G/lIaUUpRoA2gJQwiT7JEKEzD3v5SGlFKUaANoCUMIiJumsLc18L+UhpRSlGgDaAlDCJ3B6ICKIP8/lIaUUpRoA2gJQwgq8RusCDoOQJSGlFKUaANoCUMIzgiwYaJIDUCUhpRSlGgDaAlDCEQNKfkPHPw/lIaUUpRoA2gJQwjVUSPuAGD5P5SGlFKUaANoCUMIMlTlGd1H+T+UhpRSlGgDaAlDCNVRI+4AYPk/lIaUUpRoA2gJQwhEDSn5Dxz8P5SGlFKUaANoCUMIVz0WsF76AECUhpRSlGgDaAlDCBX/nPLmrPw/lIaUUpRoA2gJQwhZZBt7Ur7WP5SGlFKUaANoCUMIcOcIPU2e/T+UhpRSlGgDaAlDCLkWMaiAu/s/lIaUUpRoA2gJQwig9ZRDdg39P5SGlFKUZS4=

>  <experimental dG reference units>  (3) 
kcal/mol

>  <experimental dG reference field>  (3) 
r_exp_dg

>  <kJ/mol experimental dG>  (3) 
-38.62610224

>  <kcal/mol experimental dG>  (3) 
-9.23186

$$$$
6f
     RDKit          3D

 41 43  0  0  1  0  0  0  0  0999 V2000
   16.8260    5.4866    5.0116 F   0  0  0  0  0  0  0  0  0  0  0  0
   15.7453    4.8454    4.5736 C   0  0  0  0  0  0  0  0  0  0  0  0
   16.0928    4.0970    3.5232 F   0  0  0  0  0  0  0  0  0  0  0  0
   14.8278    5.7428    4.1981 F   0  0  0  0  0  0  0  0  0  0  0  0
   15.2367    3.9636    5.6841 C   0  0  0  0  0  0  0  0  0  0  0  0
   15.8442    2.7235    5.8408 C   0  0  0  0  0  0  0  0  0  0  0  0
   15.3661    1.8518    6.8128 C   0  0  0  0  0  0  0  0  0  0  0  0
   15.8891    0.6056    6.7899 O   0  0  0  0  0  0  0  0  0  0  0  0
   17.0046    0.3263    7.5138 C   0  0  0  0  0  0  0  0  0  0  0  0
   17.7720   -0.7672    7.1021 C   0  0  0  0  0  0  0  0  0  0  0  0
   17.5901   -1.2571    5.7835 N   0  0  0  0  0  0  0  0  0  0  0  0
   18.4825   -1.9458    5.0672 C   0  0  0  0  0  0  0  0  0  0  0  0
   19.5788   -2.2838    5.4984 O   0  0  0  0  0  0  0  0  0  0  0  0
   18.0421   -2.2052    3.8300 N   0  0  0  0  0  0  0  0  0  0  0  0
   18.6958   -2.9143    2.7956 C   0  0  0  0  0  0  0  0  0  0  0  0
   19.7235   -3.8526    3.0135 C   0  0  0  0  0  0  0  0  0  0  0  0
   20.3213   -4.5059    1.9276 C   0  0  0  0  0  0  0  0  0  0  0  0
   19.8900   -4.2506    0.6203 C   0  0  0  0  0  0  0  0  0  0  0  0
   20.4381   -4.9175   -0.4207 F   0  0  0  0  0  0  0  0  0  0  0  0
   18.8562   -3.3306    0.4046 C   0  0  0  0  0  0  0  0  0  0  0  0
   18.2562   -2.6753    1.4877 C   0  0  0  0  0  0  0  0  0  0  0  0
   18.6366   -1.3410    8.0551 C   0  0  0  0  0  0  0  0  0  0  0  0
   18.7354   -0.7489    9.3226 C   0  0  0  0  0  0  0  0  0  0  0  0
   18.0122    0.4239    9.5742 C   0  0  0  0  0  0  0  0  0  0  0  0
   17.1626    0.9697    8.6887 N   0  0  0  0  0  0  0  0  0  0  0  0
   14.3067    2.2008    7.6725 C   0  0  0  0  0  0  0  0  0  0  0  0
   13.7091    3.4619    7.5351 C   0  0  0  0  0  0  0  0  0  0  0  0
   14.1743    4.3352    6.5358 C   0  0  0  0  0  0  0  0  0  0  0  0
   16.6412    2.4179    5.1779 H   0  0  0  0  0  0  0  0  0  0  0  0
   16.7788   -0.9271    5.2804 H   0  0  0  0  0  0  0  0  0  0  0  0
   17.1609   -1.7862    3.5763 H   0  0  0  0  0  0  0  0  0  0  0  0
   20.0704   -4.1021    4.0050 H   0  0  0  0  0  0  0  0  0  0  0  0
   21.1140   -5.2190    2.1031 H   0  0  0  0  0  0  0  0  0  0  0  0
   18.5138   -3.1375   -0.5998 H   0  0  0  0  0  0  0  0  0  0  0  0
   17.4605   -1.9700    1.2997 H   0  0  0  0  0  0  0  0  0  0  0  0
   19.2152   -2.2308    7.8544 H   0  0  0  0  0  0  0  0  0  0  0  0
   19.3872   -1.1674   10.0775 H   0  0  0  0  0  0  0  0  0  0  0  0
   18.1051    0.9309   10.5232 H   0  0  0  0  0  0  0  0  0  0  0  0
   13.9465    1.4956    8.4096 H   0  0  0  0  0  0  0  0  0  0  0  0
   12.8859    3.7497    8.1740 H   0  0  0  0  0  0  0  0  0  0  0  0
   13.7019    5.2989    6.4127 H   0  0  0  0  0  0  0  0  0  0  0  0
  1  2  1  0
  2  3  1  0
  2  4  1  0
  2  5  1  0
  5 28  2  0
  5  6  1  0
  6  7  2  0
  6 29  1  0
  7  8  1  0
  7 26  1  0
  8  9  1  0
  9 25  2  0
  9 10  1  0
 10 11  1  0
 10 22  2  0
 11 12  1  0
 11 30  1  0
 12 13  2  0
 12 14  1  0
 14 15  1  0
 14 31  1  0
 15 21  1  0
 15 16  2  0
 16 17  1  0
 16 32  1  0
 17 18  2  0
 17 33  1  0
 18 19  1  0
 18 20  1  0
 20 21  2  0
 20 34  1  0
 21 35  1  0
 22 23  1  0
 22 36  1  0
 23 24  2  0
 23 37  1  0
 24 25  1  0
 24 38  1  0
 26 27  2  0
 26 39  1  0
 27 28  1  0
 27 40  1  0
 28 41  1  0
M  END
>  <r_exp_dg>  (4) 
-9.32958

>  <AmberAM1BCCCache>  (4) 
gASVZgMAAAAAAABdlCiMFm51bXB5Ll9jb3JlLm11bHRpYXJyYXmUjAZzY2FsYXKUk5SMBW51bXB5lIwFZHR5cGWUk5SMAmY4lImIh5RSlChLA4wBPJROTk5K/////0r/////SwB0lGJDCKWdHdmkPwbAlIaUUpRoA2gJQwic0atPbTkgQJSGlFKUaANoCUMIpZ0d2aQ/BsCUhpRSlGgDaAlDCKWdHdmkPwbAlIaUUpRoA2gJQwizyxPJzwn+v5SGlFKUaANoCUMI7cUEDqus77+UhpRSlGgDaAlDCASvvST1M/Q/lIaUUpRoA2gJQwiXxGnwCIwSwJSGlFKUaANoCUMIYb5F/ftHG0CUhpRSlGgDaAlDCMP1L57xo+e/lIaUUpRoA2gJQwgA2cncxcsUwJSGlFKUaANoCUMIjLFdkXsDIkCUhpRSlGgDaAlDCAkQX1WrzxzAlIaUUpRoA2gJQwgWxrl+5IwVwJSGlFKUaANoCUMIGq3xBO3U4D+UhpRSlGgDaAlDCFuCA0qhy/i/lIaUUpRoA2gJQwg/RxEEISf7v5SGlFKUaANoCUMIfYHCjQX68z+UhpRSlGgDaAlDCAjB4WouYfq/lIaUUpRoA2gJQwg/RxEEISf7v5SGlFKUaANoCUMIW4IDSqHL+L+UhpRSlGgDaAlDCAkbTTWhR+y/lIaUUpRoA2gJQwi1DpNWpJkHwJSGlFKUaANoCUMIZe9RozAzE0CUhpRSlGgDaAlDCKPi7Ik0aCDAlIaUUpRoA2gJQwhnOF5z2ojxv5SGlFKUaANoCUMIjKrlMUAx97+UhpRSlGgDaAlDCDxefi+dBvC/lIaUUpRoA2gJQwheCBmxFe/+P5SGlFKUaANoCUMIzw+w7JVRDkCUhpRSlGgDaAlDCHMnRKIvYA1AlIaUUpRoA2gJQwjsMr3EkDz9P5SGlFKUaANoCUMIHEFJy7mr/D+UhpRSlGgDaAlDCBxBScu5q/w/lIaUUpRoA2gJQwjsMr3EkDz9P5SGlFKUaANoCUMIW15sHMj5AECUhpRSlGgDaAlDCGE8xXMB3Pw/lIaUUpRoA2gJQwiKWbx/vHrXP5SGlFKUaANoCUMIdym1FSCd/T+UhpRSlGgDaAlDCMBY3YBTuvs/lIaUUpRoA2gJQwinN0EcSQz9P5SGlFKUZS4=

>  <experimental dG reference units>  (4) 
kcal/mol

>  <experimental dG reference field>  (4) 
r_exp_dg

>  <kJ/mol experimental dG>  (4) 
-39.03496272

>  <kcal/mol experimental dG>  (4) 
-9.32958

$$$$
6b
     RDKit          3D

 41 43  0  0  1  0  0  0  0  0999 V2000
   15.1690    5.8260    4.2032 F   0  0  0  0  0  0  0  0  0  0  0  0
   15.9373    4.7760    4.4826 C   0  0  0  0  0  0  0  0  0  0  0  0
   17.1457    5.1925    4.8498 F   0  0  0  0  0  0  0  0  0  0  0  0
   16.0599    4.0297    3.3861 F   0  0  0  0  0  0  0  0  0  0  0  0
   15.3561    3.9396    5.5920 C   0  0  0  0  0  0  0  0  0  0  0  0
   15.9201    2.6887    5.8040 C   0  0  0  0  0  0  0  0  0  0  0  0
   15.3846    1.8527    6.7761 C   0  0  0  0  0  0  0  0  0  0  0  0
   15.8795    0.5972    6.8034 O   0  0  0  0  0  0  0  0  0  0  0  0
   17.0010    0.3254    7.5184 C   0  0  0  0  0  0  0  0  0  0  0  0
   17.7625   -0.7696    7.1062 C   0  0  0  0  0  0  0  0  0  0  0  0
   17.5711   -1.2806    5.7968 N   0  0  0  0  0  0  0  0  0  0  0  0
   18.4812   -1.9327    5.0621 C   0  0  0  0  0  0  0  0  0  0  0  0
   19.6060   -2.1897    5.4688 O   0  0  0  0  0  0  0  0  0  0  0  0
   18.0384   -2.2078    3.8277 N   0  0  0  0  0  0  0  0  0  0  0  0
   18.6961   -2.9235    2.7931 C   0  0  0  0  0  0  0  0  0  0  0  0
   19.7021   -3.8997    2.9890 C   0  0  0  0  0  0  0  0  0  0  0  0
   20.0693   -4.3185    4.2160 F   0  0  0  0  0  0  0  0  0  0  0  0
   20.3064   -4.5304    1.8924 C   0  0  0  0  0  0  0  0  0  0  0  0
   19.8934   -4.2390    0.5898 C   0  0  0  0  0  0  0  0  0  0  0  0
   18.8558   -3.3193    0.3920 C   0  0  0  0  0  0  0  0  0  0  0  0
   18.2591   -2.6713    1.4851 C   0  0  0  0  0  0  0  0  0  0  0  0
   18.6246   -1.3422    8.0589 C   0  0  0  0  0  0  0  0  0  0  0  0
   18.7331   -0.7444    9.3227 C   0  0  0  0  0  0  0  0  0  0  0  0
   18.0153    0.4305    9.5748 C   0  0  0  0  0  0  0  0  0  0  0  0
   17.1607    0.9696    8.6926 N   0  0  0  0  0  0  0  0  0  0  0  0
   14.3070    2.2506    7.5891 C   0  0  0  0  0  0  0  0  0  0  0  0
   13.7531    3.5251    7.4022 C   0  0  0  0  0  0  0  0  0  0  0  0
   14.2752    4.3592    6.3969 C   0  0  0  0  0  0  0  0  0  0  0  0
   16.7345    2.3415    5.1843 H   0  0  0  0  0  0  0  0  0  0  0  0
   16.7324   -0.9874    5.3188 H   0  0  0  0  0  0  0  0  0  0  0  0
   17.1530   -1.7954    3.5768 H   0  0  0  0  0  0  0  0  0  0  0  0
   21.0764   -5.2702    2.0566 H   0  0  0  0  0  0  0  0  0  0  0  0
   20.3519   -4.7380   -0.2521 H   0  0  0  0  0  0  0  0  0  0  0  0
   18.5153   -3.1037   -0.6110 H   0  0  0  0  0  0  0  0  0  0  0  0
   17.4698   -1.9559    1.3099 H   0  0  0  0  0  0  0  0  0  0  0  0
   19.1883   -2.2380    7.8564 H   0  0  0  0  0  0  0  0  0  0  0  0
   19.3817   -1.1622   10.0788 H   0  0  0  0  0  0  0  0  0  0  0  0
   18.1037    0.9338   10.5263 H   0  0  0  0  0  0  0  0  0  0  0  0
   13.8967    1.5731    8.3254 H   0  0  0  0  0  0  0  0  0  0  0  0
   12.9205    3.8544    8.0072 H   0  0  0  0  0  0  0  0  0  0  0  0
   13.8320    5.3302    6.2371 H   0  0  0  0  0  0  0  0  0  0  0  0
  1  2  1  0
  2  3  1  0
  2  4  1  0
  2  5  1  0
  5 28  2  0
  5  6  1  0
  6  7  2  0
  6 29  1  0
  7  8  1  0
  7 26  1  0
  8  9  1  0
  9 25  2  0
  9 10  1  0
 10 11  1  0
 10 22  2  0
 11 12  1  0
 11 30  1  0
 12 13  2  0
 12 14  1  0
 14 15  1  0
 14 31  1  0
 15 21  1  0
 15 16  2  0
 16 17  1  0
 16 18  1  0
 18 19  2  0
 18 32  1  0
 19 20  1  0
 19 33  1  0
 20 21  2  0
 20 34  1  0
 21 35  1  0
 22 23  1  0
 22 36  1  0
 23 24  2  0
 23 37  1  0
 24 25  1  0
 24 38  1  0
 26 27  2  0
 26 39  1  0
 27 28  1  0
 27 40  1  0
 28 41  1  0
M  END
>  <r_exp_dg>  (5) 
-9.99707

>  <AmberAM1BCCCache>  (5) 
gASVZgMAAAAAAABdlCiMFm51bXB5Ll9jb3JlLm11bHRpYXJyYXmUjAZzY2FsYXKUk5SMBW51bXB5lIwFZHR5cGWUk5SMAmY4lImIh5RSlChLA4wBPJROTk5K/////0r/////SwB0lGJDCI6EnU3SQAbAlIaUUpRoA2gJQwji14vyITkgQJSGlFKUaANoCUMIjoSdTdJABsCUhpRSlGgDaAlDCI6EnU3SQAbAlIaUUpRoA2gJQwiEmROyKgz+v5SGlFKUaANoCUMIA2sMj9FQ77+UhpRSlGgDaAlDCDThvTuaMfQ/lIaUUpRoA2gJQwg6uYrAjYASwJSGlFKUaANoCUMIv8kkLXdTG0CUhpRSlGgDaAlDCNmaNx8YSOe/lIaUUpRoA2gJQwijzeqsSsAUwJSGlFKUaANoCUMIOzdNKTkJIkCUhpRSlGgDaAlDCE8CvvlT3BzAlIaUUpRoA2gJQwiiwD+8D0UVwJSGlFKUaANoCUMIeWT1pGXN1D+UhpRSlGgDaAlDCHCfjtnbfOs/lIaUUpRoA2gJQwhMZD1ADhb8v5SGlFKUaANoCUMIPyOd86SY+r+UhpRSlGgDaAlDCOhu3WsqlPe/lIaUUpRoA2gJQwgXfWlyUwP3v5SGlFKUaANoCUMIpqcNhs5Q9b+UhpRSlGgDaAlDCDWtRFjmrOy/lIaUUpRoA2gJQwie9RLL0ZoHwJSGlFKUaANoCUMIIP3y/ocmE0CUhpRSlGgDaAlDCF3cDOd/aCDAlIaUUpRoA2gJQwg4Bl5cNYvxv5SGlFKUaANoCUMIXXjlGpsz97+UhpRSlGgDaAlDCA0sfhj4CPC/lIaUUpRoA2gJQwjSNZVwAh3/P5SGlFKUaANoCUMILCSsILCADkCUhpRSlGgDaAlDCP4vdvv8Bw5AlIaUUpRoA2gJQwgFeM05F3n8P5SGlFKUaANoCUMITaf1pEqW+j+UhpRSlGgDaAlDCE2n9aRKlvo/lIaUUpRoA2gJQwihhXiuw2cAQJSGlFKUaANoCUMIcnfsp5r4AECUhpRSlGgDaAlDCJBuxYqm2fw/lIaUUpRoA2gJQwgwNc05MrDWP5SGlFKUaANoCUMIplu1LMWa/T+UhpRSlGgDaAlDCO6K3Zf4t/s/lIaUUpRoA2gJQwjVaUEz7gn9P5SGlFKUZS4=

>  <experimental dG reference units>  (5) 
kcal/mol

>  <experimental dG reference field>  (5) 
r_exp_dg

>  <kJ/mol experimental dG>  (5) 
-41.82774088000001

>  <kcal/mol experimental dG>  (5) 
-9.99707

$$$$
6e
     RDKit          3D

 41 43  0  0  1  0  0  0  0  0999 V2000
   21.5242   -5.7139    2.1516 Cl  0  0  0  0  0  0  0  0  0  0  0  0
   20.3079   -4.5246    1.8997 C   0  0  0  0  0  0  0  0  0  0  0  0
   19.7200   -3.8676    2.9921 C   0  0  0  0  0  0  0  0  0  0  0  0
   18.7006   -2.9179    2.7849 C   0  0  0  0  0  0  0  0  0  0  0  0
   18.0659   -2.2044    3.8207 N   0  0  0  0  0  0  0  0  0  0  0  0
   18.5029   -2.0239    5.0677 C   0  0  0  0  0  0  0  0  0  0  0  0
   19.5695   -2.4197    5.5160 O   0  0  0  0  0  0  0  0  0  0  0  0
   17.6230   -1.3486    5.7928 N   0  0  0  0  0  0  0  0  0  0  0  0
   17.8874   -0.7895    7.0460 C   0  0  0  0  0  0  0  0  0  0  0  0
   16.9598    0.1220    7.5238 C   0  0  0  0  0  0  0  0  0  0  0  0
   15.9893    0.4996    6.6287 O   0  0  0  0  0  0  0  0  0  0  0  0
   15.4396    1.7367    6.6655 C   0  0  0  0  0  0  0  0  0  0  0  0
   15.9527    2.7367    5.8406 C   0  0  0  0  0  0  0  0  0  0  0  0
   15.3138    3.9666    5.8107 C   0  0  0  0  0  0  0  0  0  0  0  0
   15.8054    4.9881    4.8551 C   0  0  0  0  0  0  0  0  0  0  0  0
   16.1485    4.4802    3.6826 F   0  0  0  0  0  0  0  0  0  0  0  0
   14.9043    5.9367    4.6767 F   0  0  0  0  0  0  0  0  0  0  0  0
   16.8642    5.4741    5.4367 F   0  0  0  0  0  0  0  0  0  0  0  0
   14.2575    4.2508    6.6886 C   0  0  0  0  0  0  0  0  0  0  0  0
   13.8078    3.2727    7.5924 C   0  0  0  0  0  0  0  0  0  0  0  0
   14.3865    1.9985    7.5591 C   0  0  0  0  0  0  0  0  0  0  0  0
   17.0476    0.7063    8.7379 N   0  0  0  0  0  0  0  0  0  0  0  0
   18.1248    0.4019    9.4902 C   0  0  0  0  0  0  0  0  0  0  0  0
   19.1555   -0.4496    9.0583 C   0  0  0  0  0  0  0  0  0  0  0  0
   19.0290   -1.0697    7.8067 C   0  0  0  0  0  0  0  0  0  0  0  0
   18.2530   -2.6730    1.4825 C   0  0  0  0  0  0  0  0  0  0  0  0
   18.8455   -3.3246    0.3900 C   0  0  0  0  0  0  0  0  0  0  0  0
   19.8834   -4.2476    0.5959 C   0  0  0  0  0  0  0  0  0  0  0  0
   20.0536   -4.1287    3.9799 H   0  0  0  0  0  0  0  0  0  0  0  0
   17.1715   -1.7919    3.5830 H   0  0  0  0  0  0  0  0  0  0  0  0
   16.8722   -0.9169    5.2656 H   0  0  0  0  0  0  0  0  0  0  0  0
   16.7916    2.5330    5.1877 H   0  0  0  0  0  0  0  0  0  0  0  0
   13.7988    5.2284    6.6866 H   0  0  0  0  0  0  0  0  0  0  0  0
   12.9938    3.4889    8.2707 H   0  0  0  0  0  0  0  0  0  0  0  0
   14.0282    1.2231    8.2203 H   0  0  0  0  0  0  0  0  0  0  0  0
   18.1799    0.8769   10.4567 H   0  0  0  0  0  0  0  0  0  0  0  0
   20.0087   -0.6410    9.6896 H   0  0  0  0  0  0  0  0  0  0  0  0
   19.7831   -1.7584    7.4548 H   0  0  0  0  0  0  0  0  0  0  0  0
   17.4629   -1.9586    1.3053 H   0  0  0  0  0  0  0  0  0  0  0  0
   18.5066   -3.1077   -0.6113 H   0  0  0  0  0  0  0  0  0  0  0  0
   20.3434   -4.7497   -0.2427 H   0  0  0  0  0  0  0  0  0  0  0  0
  1  2  1  0
  2 28  2  0
  2  3  1  0
  3  4  2  0
  3 29  1  0
  4  5  1  0
  4 26  1  0
  5  6  1  0
  5 30  1  0
  6  7  2  0
  6  8  1  0
  8  9  1  0
  8 31  1  0
  9 25  2  0
  9 10  1  0
 10 11  1  0
 10 22  2  0
 11 12  1  0
 12 21  1  0
 12 13  2  0
 13 14  1  0
 13 32  1  0
 14 15  1  0
 14 19  2  0
 15 16  1  0
 15 17  1  0
 15 18  1  0
 19 20  1  0
 19 33  1  0
 20 21  2  0
 20 34  1  0
 21 35  1  0
 22 23  1  0
 23 24  2  0
 23 36  1  0
 24 25  1  0
 24 37  1  0
 25 38  1  0
 26 27  2  0
 26 39  1  0
 27 28  1  0
 27 40  1  0
 28 41  1  0
M  END
>  <r_exp_dg>  (6) 
-9.40347

>  <AmberAM1BCCCache>  (6) 
gASVZgMAAAAAAABdlCiMFm51bXB5Ll9jb3JlLm11bHRpYXJyYXmUjAZzY2FsYXKUk5SMBW51bXB5lIwFZHR5cGWUk5SMAmY4lImIh5RSlChLA4wBPJROTk5K/////0r/////SwB0lGJDCOqcXFAqnPG/lIaUUpRoA2gJQwjY3CbIv37eP5SGlFKUaANoCUMImlUG3i6wAMCUhpRSlGgDaAlDCMKtGI8KBOs/lIaUUpRoA2gJQwiLwhY9GrEVwJSGlFKUaANoCUMIXrB8e40PIkCUhpRSlGgDaAlDCAkQX1WrzxzAlIaUUpRoA2gJQwgA2cncxcsUwJSGlFKUaANoCUMIw/UvnvGj57+UhpRSlGgDaAlDCDO9ZOcNVBtAlIaUUpRoA2gJQwiXxGnwCIwSwJSGlFKUaANoCUMIBK+9JPUz9D+UhpRSlGgDaAlDCO3FBA6rrO+/lIaUUpRoA2gJQwizyxPJzwn+v5SGlFKUaANoCUMInNGrT205IECUhpRSlGgDaAlDCKWdHdmkPwbAlIaUUpRoA2gJQwilnR3ZpD8GwJSGlFKUaANoCUMIpZ0d2aQ/BsCUhpRSlGgDaAlDCDxefi+dBvC/lIaUUpRoA2gJQwiMquUxQDH3v5SGlFKUaANoCUMIZzhec9qI8b+UhpRSlGgDaAlDCKPi7Ik0aCDAlIaUUpRoA2gJQwhl71GjMDMTQJSGlFKUaANoCUMItQ6TVqSZB8CUhpRSlGgDaAlDCAkbTTWhR+y/lIaUUpRoA2gJQwgUbTHA46T5v5SGlFKUaANoCUMIlBI+txcL87+UhpRSlGgDaAlDCD9HEQQhJ/u/lIaUUpRoA2gJQwg1YuUvxFn7P5SGlFKUaANoCUMIuSLASneQDUCUhpRSlGgDaAlDCM8PsOyVUQ5AlIaUUpRoA2gJQwikA5VZXR//P5SGlFKUaANoCUMIpzdBHEkM/T+UhpRSlGgDaAlDCMBY3YBTuvs/lIaUUpRoA2gJQwh3KbUVIJ39P5SGlFKUaANoCUMIi1m8f7x61z+UhpRSlGgDaAlDCGE8xXMB3Pw/lIaUUpRoA2gJQwhbXmwcyPkAQJSGlFKUaANoCUMI5266Ts1QAECUhpRSlGgDaAlDCGRwcTbtyPo/lIaUUpRoA2gJQwiQSlF6Kkv8P5SGlFKUZS4=

>  <experimental dG reference units>  (6) 
kcal/mol

>  <experimental dG reference field>  (6) 
r_exp_dg

>  <kJ/mol experimental dG>  (6) 
-39.344118480000006

>  <kcal/mol experimental dG>  (6) 
-9.40347

$$$$
6q
     RDKit          3D

 41 43  0  0  1  0  0  0  0  0999 V2000
   20.9199   -6.2010    2.1985 Cl  0  0  0  0  0  0  0  0  0  0  0  0
   20.0757   -4.7277    1.9400 C   0  0  0  0  0  0  0  0  0  0  0  0
   19.9917   -4.2119    0.6429 C   0  0  0  0  0  0  0  0  0  0  0  0
   19.3156   -3.0070    0.4398 C   0  0  0  0  0  0  0  0  0  0  0  0
   19.4965   -2.2063   -1.0641 Cl  0  0  0  0  0  0  0  0  0  0  0  0
   18.6179   -2.3888    1.4897 C   0  0  0  0  0  0  0  0  0  0  0  0
   18.7125   -2.8980    2.7926 C   0  0  0  0  0  0  0  0  0  0  0  0
   18.0339   -2.2049    3.8237 N   0  0  0  0  0  0  0  0  0  0  0  0
   18.4872   -1.9683    5.0628 C   0  0  0  0  0  0  0  0  0  0  0  0
   19.5814   -2.3334    5.4684 O   0  0  0  0  0  0  0  0  0  0  0  0
   17.6025   -1.2787    5.7983 N   0  0  0  0  0  0  0  0  0  0  0  0
   17.8003   -0.7692    7.1089 C   0  0  0  0  0  0  0  0  0  0  0  0
   17.0237    0.3088    7.5422 C   0  0  0  0  0  0  0  0  0  0  0  0
   15.8798    0.5637    6.8611 O   0  0  0  0  0  0  0  0  0  0  0  0
   15.3551    1.8090    6.8664 C   0  0  0  0  0  0  0  0  0  0  0  0
   15.8357    2.6697    5.8886 C   0  0  0  0  0  0  0  0  0  0  0  0
   15.2302    3.9056    5.7132 C   0  0  0  0  0  0  0  0  0  0  0  0
   15.7371    4.7689    4.5886 C   0  0  0  0  0  0  0  0  0  0  0  0
   16.8172    5.4283    5.0012 F   0  0  0  0  0  0  0  0  0  0  0  0
   16.0754    3.9973    3.5523 F   0  0  0  0  0  0  0  0  0  0  0  0
   14.8119    5.6406    4.1893 F   0  0  0  0  0  0  0  0  0  0  0  0
   14.1723    4.2917    6.5643 C   0  0  0  0  0  0  0  0  0  0  0  0
   13.7139    3.4349    7.5795 C   0  0  0  0  0  0  0  0  0  0  0  0
   14.3027    2.1722    7.7275 C   0  0  0  0  0  0  0  0  0  0  0  0
   17.2039    0.9653    8.7063 N   0  0  0  0  0  0  0  0  0  0  0  0
   18.0933    0.4564    9.5684 C   0  0  0  0  0  0  0  0  0  0  0  0
   18.8255   -0.7079    9.3018 C   0  0  0  0  0  0  0  0  0  0  0  0
   18.7006   -1.3152    8.0443 C   0  0  0  0  0  0  0  0  0  0  0  0
   19.4740   -4.0602    3.0181 C   0  0  0  0  0  0  0  0  0  0  0  0
   20.4960   -4.7034   -0.1763 H   0  0  0  0  0  0  0  0  0  0  0  0
   18.0959   -1.4591    1.3049 H   0  0  0  0  0  0  0  0  0  0  0  0
   17.1624   -1.7648    3.5592 H   0  0  0  0  0  0  0  0  0  0  0  0
   16.7703   -0.9637    5.3178 H   0  0  0  0  0  0  0  0  0  0  0  0
   16.6392    2.3456    5.2423 H   0  0  0  0  0  0  0  0  0  0  0  0
   13.7039    5.2534    6.4342 H   0  0  0  0  0  0  0  0  0  0  0  0
   12.9001    3.7349    8.2242 H   0  0  0  0  0  0  0  0  0  0  0  0
   13.9362    1.4822    8.4759 H   0  0  0  0  0  0  0  0  0  0  0  0
   18.2033    0.9707   10.5095 H   0  0  0  0  0  0  0  0  0  0  0  0
   19.5109   -1.1005   10.0364 H   0  0  0  0  0  0  0  0  0  0  0  0
   19.2910   -2.1952    7.8392 H   0  0  0  0  0  0  0  0  0  0  0  0
   19.5647   -4.4762    4.0123 H   0  0  0  0  0  0  0  0  0  0  0  0
  1  2  1  0
  2 29  2  0
  2  3  1  0
  3  4  2  0
  3 30  1  0
  4  5  1  0
  4  6  1  0
  6  7  2  0
  6 31  1  0
  7  8  1  0
  7 29  1  0
  8  9  1  0
  8 32  1  0
  9 10  2  0
  9 11  1  0
 11 12  1  0
 11 33  1  0
 12 28  2  0
 12 13  1  0
 13 14  1  0
 13 25  2  0
 14 15  1  0
 15 24  1  0
 15 16  2  0
 16 17  1  0
 16 34  1  0
 17 18  1  0
 17 22  2  0
 18 19  1  0
 18 20  1  0
 18 21  1  0
 22 23  1  0
 22 35  1  0
 23 24  2  0
 23 36  1  0
 24 37  1  0
 25 26  1  0
 26 27  2  0
 26 38  1  0
 27 28  1  0
 27 39  1  0
 28 40  1  0
 29 41  1  0
M  END
>  <r_exp_dg>  (7) 
-9.23883

>  <AmberAM1BCCCache>  (7) 
gASVZgMAAAAAAABdlCiMFm51bXB5Ll9jb3JlLm11bHRpYXJyYXmUjAZzY2FsYXKUk5SMBW51bXB5lIwFZHR5cGWUk5SMAmY4lImIh5RSlChLA4wBPJROTk5K/////0r/////SwB0lGJDCH+5pdvFIO6/lIaUUpRoA2gJQwg5LNsaS+PhP5SGlFKUaANoCUMI+UuVW9n2+r+UhpRSlGgDaAlDCDks2xpL4+E/lIaUUpRoA2gJQwh/uaXbxSDuv5SGlFKUaANoCUMIrwIXDzDj/b+UhpRSlGgDaAlDCNEysKtR6+8/lIaUUpRoA2gJQwj/vnP7T9UVwJSGlFKUaANoCUMIxi+McJYVIkCUhpRSlGgDaAlDCMMU46xjnxzAlIaUUpRoA2gJQwhd24sIorMUwJSGlFKUaANoCUMIYtkXkZ/F6L+UhpRSlGgDaAlDCAS8g9EfYBtAlIaUUpRoA2gJQwiXxGnwCIwSwJSGlFKUaANoCUMIv7NBfK0D9D+UhpRSlGgDaAlDCO3FBA6rrO+/lIaUUpRoA2gJQwizyxPJzwn+v5SGlFKUaANoCUMInNGrT205IECUhpRSlGgDaAlDCKWdHdmkPwbAlIaUUpRoA2gJQwilnR3ZpD8GwJSGlFKUaANoCUMIpZ0d2aQ/BsCUhpRSlGgDaAlDCDxefi+dBvC/lIaUUpRoA2gJQwiMquUxQDH3v5SGlFKUaANoCUMIIj3iypJY8b+UhpRSlGgDaAlDCKPi7Ik0aCDAlIaUUpRoA2gJQwgI7Y93VEsTQJSGlFKUaANoCUMItQ6TVqSZB8CUhpRSlGgDaAlDCH4kVeQR5+u/lIaUUpRoA2gJQwivAhcPMOP9v5SGlFKUaANoCUMIpAOVWV0f/z+UhpRSlGgDaAlDCHT1CFM0sP8/lIaUUpRoA2gJQwihG3rH4tgNQJSGlFKUaANoCUMIcg3uwLlpDkCUhpRSlGgDaAlDCF4IGbEV7/4/lIaUUpRoA2gJQwinN0EcSQz9P5SGlFKUaANoCUMIBVRZKZvq+z+UhpRSlGgDaAlDCHcptRUgnf0/lIaUUpRoA2gJQwiLWbx/vHrXP5SGlFKUaANoCUMIpzdBHEkM/T+UhpRSlGgDaAlDCFtebBzI+QBAlIaUUpRoA2gJQwh09QhTNLD/P5SGlFKUZS4=

>  <experimental dG reference units>  (7) 
kcal/mol

>  <experimental dG reference field>  (7) 
r_exp_dg

>  <kJ/mol experimental dG>  (7) 
-38.655264720000005

>  <kcal/mol experimental dG>  (7) 
-9.23883

$$$$
6n
     RDKit          3D

 42 44  0  0  1  0  0  0  0  0999 V2000
   16.9984    5.1697    4.8097 F   0  0  0  0  0  0  0  0  0  0  0  0
   15.7507    4.8095    4.5303 C   0  0  0  0  0  0  0  0  0  0  0  0
   15.7590    4.0811    3.4178 F   0  0  0  0  0  0  0  0  0  0  0  0
   15.0056    5.8926    4.3344 F   0  0  0  0  0  0  0  0  0  0  0  0
   15.2338    3.9596    5.6595 C   0  0  0  0  0  0  0  0  0  0  0  0
   15.8316    2.7179    5.8226 C   0  0  0  0  0  0  0  0  0  0  0  0
   15.3611    1.8553    6.8045 C   0  0  0  0  0  0  0  0  0  0  0  0
   15.8803    0.6082    6.7907 O   0  0  0  0  0  0  0  0  0  0  0  0
   16.9968    0.3300    7.5132 C   0  0  0  0  0  0  0  0  0  0  0  0
   17.7627   -0.7649    7.1018 C   0  0  0  0  0  0  0  0  0  0  0  0
   17.5835   -1.2662    5.7865 N   0  0  0  0  0  0  0  0  0  0  0  0
   18.4809   -1.9472    5.0629 C   0  0  0  0  0  0  0  0  0  0  0  0
   19.5804   -2.2833    5.4885 O   0  0  0  0  0  0  0  0  0  0  0  0
   18.0399   -2.2056    3.8238 N   0  0  0  0  0  0  0  0  0  0  0  0
   18.6969   -2.9140    2.7912 C   0  0  0  0  0  0  0  0  0  0  0  0
   18.2600   -2.6791    1.4809 C   0  0  0  0  0  0  0  0  0  0  0  0
   18.8214   -3.3844    0.4038 C   0  0  0  0  0  0  0  0  0  0  0  0
   19.8055   -4.3579    0.6368 C   0  0  0  0  0  0  0  0  0  0  0  0
   20.2154   -5.2603   -0.4212 C   0  0  0  0  0  0  0  0  0  0  0  0
   20.5313   -5.9920   -1.2566 N   0  0  0  0  0  0  0  0  0  0  0  0
   20.2837   -4.5584    1.9383 C   0  0  0  0  0  0  0  0  0  0  0  0
   19.7218   -3.8545    3.0131 C   0  0  0  0  0  0  0  0  0  0  0  0
   18.6201   -1.3422    8.0575 C   0  0  0  0  0  0  0  0  0  0  0  0
   18.7217   -0.7499    9.3235 C   0  0  0  0  0  0  0  0  0  0  0  0
   18.0027    0.4255    9.5759 C   0  0  0  0  0  0  0  0  0  0  0  0
   17.1535    0.9697    8.6903 N   0  0  0  0  0  0  0  0  0  0  0  0
   14.3117    2.2163    7.6684 C   0  0  0  0  0  0  0  0  0  0  0  0
   13.7225    3.4816    7.5286 C   0  0  0  0  0  0  0  0  0  0  0  0
   14.1807    4.3456    6.5170 C   0  0  0  0  0  0  0  0  0  0  0  0
   16.6231    2.4019    5.1581 H   0  0  0  0  0  0  0  0  0  0  0  0
   16.7604   -0.9472    5.2964 H   0  0  0  0  0  0  0  0  0  0  0  0
   17.1602   -1.7846    3.5662 H   0  0  0  0  0  0  0  0  0  0  0  0
   17.4748   -1.9624    1.2914 H   0  0  0  0  0  0  0  0  0  0  0  0
   18.4370   -3.2250   -0.5935 H   0  0  0  0  0  0  0  0  0  0  0  0
   21.0338   -5.3113    2.1349 H   0  0  0  0  0  0  0  0  0  0  0  0
   20.0757   -4.0863    4.0055 H   0  0  0  0  0  0  0  0  0  0  0  0
   19.1906   -2.2358    7.8572 H   0  0  0  0  0  0  0  0  0  0  0  0
   19.3699   -1.1694   10.0784 H   0  0  0  0  0  0  0  0  0  0  0  0
   18.0882    0.9265   10.5290 H   0  0  0  0  0  0  0  0  0  0  0  0
   13.9478    1.5198    8.4108 H   0  0  0  0  0  0  0  0  0  0  0  0
   12.9106    3.7795    8.1769 H   0  0  0  0  0  0  0  0  0  0  0  0
   13.7084    5.3079    6.3916 H   0  0  0  0  0  0  0  0  0  0  0  0
  1  2  1  0
  2  3  1  0
  2  4  1  0
  2  5  1  0
  5 29  2  0
  5  6  1  0
  6  7  2  0
  6 30  1  0
  7  8  1  0
  7 27  1  0
  8  9  1  0
  9 26  2  0
  9 10  1  0
 10 11  1  0
 10 23  2  0
 11 12  1  0
 11 31  1  0
 12 13  2  0
 12 14  1  0
 14 15  1  0
 14 32  1  0
 15 22  1  0
 15 16  2  0
 16 17  1  0
 16 33  1  0
 17 18  2  0
 17 34  1  0
 18 19  1  0
 18 21  1  0
 19 20  3  0
 21 22  2  0
 21 35  1  0
 22 36  1  0
 23 24  1  0
 23 37  1  0
 24 25  2  0
 24 38  1  0
 25 26  1  0
 25 39  1  0
 27 28  2  0
 27 40  1  0
 28 29  1  0
 28 41  1  0
 29 42  1  0
M  END
>  <r_exp_dg>  (8) 
-8.51749

>  <AmberAM1BCCCache>  (8) 
gASVeQMAAAAAAABdlCiMFm51bXB5Ll9jb3JlLm11bHRpYXJyYXmUjAZzY2FsYXKUk5SMBW51bXB5lIwFZHR5cGWUk5SMAmY4lImIh5RSlChLA4wBPJROTk5K/////0r/////SwB0lGJDCJRU0LfOQAbAlIaUUpRoA2gJQwjgI//XIjkgQJSGlFKUaANoCUMIlFTQt85ABsCUhpRSlGgDaAlDCJRU0LfOQAbAlIaUUpRoA2gJQwiROXmGIwz+v5SGlFKUaANoCUMIp6HPiFKx77+UhpRSlGgDaAlDCOFF3L5ZAfQ/lIaUUpRoA2gJQwgOIMPfnYwSwJSGlFKUaANoCUMIXV9JzJxrG0CUhpRSlGgDaAlDCB214gtHyui/lIaUUpRoA2gJQwimNQTiSMAUwJSGlFKUaANoCUMIRAAO2GYnIkCUhpRSlGgDaAlDCA1vW4YKrBzAlIaUUpRoA2gJQwjqFiqpGvoVwJSGlFKUaANoCUMIQnxKrSHW8T+UhpRSlGgDaAlDCLkaRcOBIADAlIaUUpRoA2gJQwhWVWiGr4bov5SGlFKUaANoCUMIBQkBhAxc4b+UhpRSlGgDaAlDCIiHR4jEUwZAlIaUUpRoA2gJQwhJ2p47fD8RwJSGlFKUaANoCUMIVlVohq+G6L+UhpRSlGgDaAlDCLkaRcOBIADAlIaUUpRoA2gJQwitCSgOKovrv5SGlFKUaANoCUMIosVFNc6aB8CUhpRSlGgDaAlDCJGRNoi/ShNAlIaUUpRoA2gJQwhfkJkBf2ggwJSGlFKUaANoCUMI/6pHiOZa8b+UhpRSlGgDaAlDCGoYS++TM/e/lIaUUpRoA2gJQwinoc+IUrHvv5SGlFKUaANoCUMIgJqz88Hs/j+UhpRSlGgDaAlDCINWO+KPaA5AlIaUUpRoA2gJQwhVYgW93O8NQJSGlFKUaANoCUMI37bLABTL/T+UhpRSlGgDaAlDCMrjMUBrAPw/lIaUUpRoA2gJQwjK4zFAawD8P5SGlFKUaANoCUMI37bLABTL/T+UhpRSlGgDaAlDCMmpe2l64ABAlIaUUpRoA2gJQwjJydte9Qn9P5SGlFKUaANoCUMIFaImim1x1z+UhpRSlGgDaAlDCJm7T1jMmv0/lIaUUpRoA2gJQwgn5vNrR+j7P5SGlFKUaANoCUMIDsVXBz06/T+UhpRSlGUu

>  <experimental dG reference units>  (8) 
kcal/mol

>  <experimental dG reference field>  (8) 
r_exp_dg

>  <kJ/mol experimental dG>  (8) 
-35.637178160000005

>  <kcal/mol experimental dG>  (8) 
-8.51749

$$$$
6l
     RDKit          3D

 45 47  0  0  1  0  0  0  0  0999 V2000
   15.9362    4.0940    3.4624 F   0  0  0  0  0  0  0  0  0  0  0  0
   15.7469    4.8437    4.5455 C   0  0  0  0  0  0  0  0  0  0  0  0
   14.8987    5.8247    4.2483 F   0  0  0  0  0  0  0  0  0  0  0  0
   16.9143    5.3616    4.9125 F   0  0  0  0  0  0  0  0  0  0  0  0
   15.2329    3.9747    5.6624 C   0  0  0  0  0  0  0  0  0  0  0  0
   15.8346    2.7331    5.8202 C   0  0  0  0  0  0  0  0  0  0  0  0
   15.3631    1.8652    6.7978 C   0  0  0  0  0  0  0  0  0  0  0  0
   15.8826    0.6179    6.7794 O   0  0  0  0  0  0  0  0  0  0  0  0
   16.9946    0.3333    7.5088 C   0  0  0  0  0  0  0  0  0  0  0  0
   17.7591   -0.7639    7.1000 C   0  0  0  0  0  0  0  0  0  0  0  0
   17.5837   -1.2663    5.7853 N   0  0  0  0  0  0  0  0  0  0  0  0
   18.4816   -1.9486    5.0633 C   0  0  0  0  0  0  0  0  0  0  0  0
   19.5787   -2.2897    5.4884 O   0  0  0  0  0  0  0  0  0  0  0  0
   18.0416   -2.2056    3.8250 N   0  0  0  0  0  0  0  0  0  0  0  0
   18.6953   -2.9148    2.7901 C   0  0  0  0  0  0  0  0  0  0  0  0
   19.7203   -3.8604    2.9968 C   0  0  0  0  0  0  0  0  0  0  0  0
   20.2817   -4.5438    1.9040 C   0  0  0  0  0  0  0  0  0  0  0  0
   19.8236   -4.2919    0.5944 C   0  0  0  0  0  0  0  0  0  0  0  0
   20.2353   -4.9728   -0.5226 O   0  0  0  0  0  0  0  0  0  0  0  0
   20.6279   -6.3205   -0.3400 C   0  0  0  0  0  0  0  0  0  0  0  0
   18.8372   -3.3206    0.3990 C   0  0  0  0  0  0  0  0  0  0  0  0
   18.2553   -2.6607    1.4868 C   0  0  0  0  0  0  0  0  0  0  0  0
   18.6068   -1.3472    8.0587 C   0  0  0  0  0  0  0  0  0  0  0  0
   18.7061   -0.7580    9.3263 C   0  0  0  0  0  0  0  0  0  0  0  0
   17.9948    0.4212    9.5766 C   0  0  0  0  0  0  0  0  0  0  0  0
   17.1498    0.9687    8.6891 N   0  0  0  0  0  0  0  0  0  0  0  0
   14.3093    2.2166    7.6591 C   0  0  0  0  0  0  0  0  0  0  0  0
   13.7209    3.4831    7.5279 C   0  0  0  0  0  0  0  0  0  0  0  0
   14.1803    4.3537    6.5231 C   0  0  0  0  0  0  0  0  0  0  0  0
   16.6298    2.4185    5.1594 H   0  0  0  0  0  0  0  0  0  0  0  0
   16.7648   -0.9405    5.2914 H   0  0  0  0  0  0  0  0  0  0  0  0
   17.1628   -1.7817    3.5671 H   0  0  0  0  0  0  0  0  0  0  0  0
   20.0783   -4.1026    3.9852 H   0  0  0  0  0  0  0  0  0  0  0  0
   21.0497   -5.2791    2.0905 H   0  0  0  0  0  0  0  0  0  0  0  0
   20.6378   -6.8284   -1.3045 H   0  0  0  0  0  0  0  0  0  0  0  0
   19.9446   -6.8667    0.3193 H   0  0  0  0  0  0  0  0  0  0  0  0
   21.6414   -6.3665    0.0716 H   0  0  0  0  0  0  0  0  0  0  0  0
   18.4827   -3.1160   -0.6003 H   0  0  0  0  0  0  0  0  0  0  0  0
   17.4694   -1.9426    1.3105 H   0  0  0  0  0  0  0  0  0  0  0  0
   19.1685   -2.2452    7.8600 H   0  0  0  0  0  0  0  0  0  0  0  0
   19.3469   -1.1864   10.0832 H   0  0  0  0  0  0  0  0  0  0  0  0
   18.0794    0.9213   10.5302 H   0  0  0  0  0  0  0  0  0  0  0  0
   13.9471    1.5143    8.3971 H   0  0  0  0  0  0  0  0  0  0  0  0
   12.9110    3.7801    8.1792 H   0  0  0  0  0  0  0  0  0  0  0  0
   13.7135    5.3194    6.4069 H   0  0  0  0  0  0  0  0  0  0  0  0
  1  2  1  0
  2  3  1  0
  2  4  1  0
  2  5  1  0
  5 29  2  0
  5  6  1  0
  6  7  2  0
  6 30  1  0
  7  8  1  0
  7 27  1  0
  8  9  1  0
  9 26  2  0
  9 10  1  0
 10 11  1  0
 10 23  2  0
 11 12  1  0
 11 31  1  0
 12 13  2  0
 12 14  1  0
 14 15  1  0
 14 32  1  0
 15 22  1  0
 15 16  2  0
 16 17  1  0
 16 33  1  0
 17 18  2  0
 17 34  1  0
 18 19  1  0
 18 21  1  0
 19 20  1  0
 20 35  1  0
 20 36  1  0
 20 37  1  0
 21 22  2  0
 21 38  1  0
 22 39  1  0
 23 24  1  0
 23 40  1  0
 24 25  2  0
 24 41  1  0
 25 26  1  0
 25 42  1  0
 27 28  2  0
 27 43  1  0
 28 29  1  0
 28 44  1  0
 29 45  1  0
M  END
>  <r_exp_dg>  (9) 
-10.4744

>  <AmberAM1BCCCache>  (9) 
gASVsgMAAAAAAABdlCiMFm51bXB5Ll9jb3JlLm11bHRpYXJyYXmUjAZzY2FsYXKUk5SMBW51bXB5lIwFZHR5cGWUk5SMAmY4lImIh5RSlChLA4wBPJROTk5K/////0r/////SwB0lGJDCFiliRPPSAbAlIaUUpRoA2gJQwg6NJU5JTkgQJSGlFKUaANoCUMIWKWJE89IBsCUhpRSlGgDaAlDCFiliRPPSAbAlIaUUpRoA2gJQwjItsh5EAz+v5SGlFKUaANoCUMIFJxubyyx77+UhpRSlGgDaAlDCHu6AMVDkvQ/lIaUUpRoA2gJQwhc/5YcmYwSwJSGlFKUaANoCUMI+YXa/EcvG0CUhpRSlGgDaAlDCEnosQzFhua/lIaUUpRoA2gJQwhoETXdeeQUwJSGlFKUaANoCUMIhxYJpw/rIUCUhpRSlGgDaAlDCKBJq2tN3BzAlIaUUpRoA2gJQwhQCu9Z5SwVwJSGlFKUaANoCUMI9n6jIfsCyT+UhpRSlGgDaAlDCKKv8MP2Kfa/lIaUUpRoA2gJQwjy4QHlI17+v5SGlFKUaANoCUMIwbV8bYvC9D+UhpRSlGgDaAlDCKugl+6bow7AlIaUUpRoA2gJQwhUPm4yWnD1P5SGlFKUaANoCUMI8uEB5SNe/r+UhpRSlGgDaAlDCKKv8MP2Kfa/lIaUUpRoA2gJQwjS1J6J0G3tv5SGlFKUaANoCUMIm4av2qCCB8CUhpRSlGgDaAlDCC24x7hqDhNAlIaUUpRoA2gJQwgFgAOgfGggwJSGlFKUaANoCUMIwR6PzGK78b+UhpRSlGgDaAlDCKCVmuKAM/e/lIaUUpRoA2gJQwiVRK+IJTnwv5SGlFKUaANoCUMIjhjgqBwd/z+UhpRSlGgDaAlDCKOcF8BROA5AlIaUUpRoA2gJQwi8vbMkXOYMQJSGlFKUaANoCUMIHl3anQ1h/D+UhpRSlGgDaAlDCAhw6vvun/s/lIaUUpRoA2gJQwiSwMAJ7LngP5SGlFKUaANoCUMIksDACey54D+UhpRSlGgDaAlDCJLAwAnsueA/lIaUUpRoA2gJQwgIcOr77p/7P5SGlFKUaANoCUMIHl3anQ1h/D+UhpRSlGgDaAlDCHPmT5jLEAFAlIaUUpRoA2gJQwgGVpQaean8P5SGlFKUaANoCUMII8D4Gpuw1j+UhpRSlGgDaAlDCGI+AGXfmv0/lIaUUpRoA2gJQwiqbSjQErj7P5SGlFKUaANoCUMIkUyMawgK/T+UhpRSlGUu

>  <experimental dG reference units>  (9) 
kcal/mol

>  <experimental dG reference field>  (9) 
r_exp_dg

>  <kJ/mol experimental dG>  (9) 
-43.8248896

>  <kcal/mol experimental dG>  (9) 
-10.4744

$$$$
6d
     RDKit          3D

 41 43  0  0  1  0  0  0  0  0999 V2000
   14.8313    5.7503    4.2078 F   0  0  0  0  0  0  0  0  0  0  0  0
   15.7386    4.8475    4.5705 C   0  0  0  0  0  0  0  0  0  0  0  0
   16.8419    5.4641    4.9836 F   0  0  0  0  0  0  0  0  0  0  0  0
   16.0408    4.0942    3.5137 F   0  0  0  0  0  0  0  0  0  0  0  0
   15.2267    3.9716    5.6836 C   0  0  0  0  0  0  0  0  0  0  0  0
   15.8349    2.7331    5.8442 C   0  0  0  0  0  0  0  0  0  0  0  0
   15.3581    1.8570    6.8093 C   0  0  0  0  0  0  0  0  0  0  0  0
   15.8801    0.6101    6.7864 O   0  0  0  0  0  0  0  0  0  0  0  0
   16.9926    0.3291    7.5155 C   0  0  0  0  0  0  0  0  0  0  0  0
   17.7603   -0.7656    7.1037 C   0  0  0  0  0  0  0  0  0  0  0  0
   17.5826   -1.2665    5.7871 N   0  0  0  0  0  0  0  0  0  0  0  0
   18.4819   -1.9478    5.0634 C   0  0  0  0  0  0  0  0  0  0  0  0
   19.5825   -2.2849    5.4871 O   0  0  0  0  0  0  0  0  0  0  0  0
   18.0392   -2.2061    3.8250 N   0  0  0  0  0  0  0  0  0  0  0  0
   18.6924   -2.9180    2.7920 C   0  0  0  0  0  0  0  0  0  0  0  0
   19.7203   -3.8563    3.0098 C   0  0  0  0  0  0  0  0  0  0  0  0
   20.3181   -4.5052    1.9206 C   0  0  0  0  0  0  0  0  0  0  0  0
   21.3052   -5.4005    2.1276 F   0  0  0  0  0  0  0  0  0  0  0  0
   19.8924   -4.2407    0.6152 C   0  0  0  0  0  0  0  0  0  0  0  0
   18.8524   -3.3290    0.3972 C   0  0  0  0  0  0  0  0  0  0  0  0
   18.2526   -2.6744    1.4837 C   0  0  0  0  0  0  0  0  0  0  0  0
   18.6257   -1.3358    8.0577 C   0  0  0  0  0  0  0  0  0  0  0  0
   18.7285   -0.7424    9.3231 C   0  0  0  0  0  0  0  0  0  0  0  0
   18.0063    0.4308    9.5765 C   0  0  0  0  0  0  0  0  0  0  0  0
   17.1496    0.9698    8.6922 N   0  0  0  0  0  0  0  0  0  0  0  0
   14.2994    2.2029    7.6676 C   0  0  0  0  0  0  0  0  0  0  0  0
   13.7046    3.4658    7.5385 C   0  0  0  0  0  0  0  0  0  0  0  0
   14.1663    4.3423    6.5392 C   0  0  0  0  0  0  0  0  0  0  0  0
   16.6370    2.4229    5.1913 H   0  0  0  0  0  0  0  0  0  0  0  0
   16.7612   -0.9432    5.2965 H   0  0  0  0  0  0  0  0  0  0  0  0
   17.1597   -1.7810    3.5690 H   0  0  0  0  0  0  0  0  0  0  0  0
   20.0714   -4.1037    3.9998 H   0  0  0  0  0  0  0  0  0  0  0  0
   20.3579   -4.7444   -0.2202 H   0  0  0  0  0  0  0  0  0  0  0  0
   18.5116   -3.1274   -0.6081 H   0  0  0  0  0  0  0  0  0  0  0  0
   17.4594   -1.9651    1.3024 H   0  0  0  0  0  0  0  0  0  0  0  0
   19.2035   -2.2256    7.8602 H   0  0  0  0  0  0  0  0  0  0  0  0
   19.3896   -1.1533   10.0751 H   0  0  0  0  0  0  0  0  0  0  0  0
   18.0985    0.9331   10.5279 H   0  0  0  0  0  0  0  0  0  0  0  0
   13.9330    1.4947    8.3999 H   0  0  0  0  0  0  0  0  0  0  0  0
   12.8883    3.7526    8.1869 H   0  0  0  0  0  0  0  0  0  0  0  0
   13.6916    5.3037    6.4197 H   0  0  0  0  0  0  0  0  0  0  0  0
  1  2  1  0
  2  3  1  0
  2  4  1  0
  2  5  1  0
  5 28  2  0
  5  6  1  0
  6  7  2  0
  6 29  1  0
  7  8  1  0
  7 26  1  0
  8  9  1  0
  9 25  2  0
  9 10  1  0
 10 11  1  0
 10 22  2  0
 11 12  1  0
 11 30  1  0
 12 13  2  0
 12 14  1  0
 14 15  1  0
 14 31  1  0
 15 21  1  0
 15 16  2  0
 16 17  1  0
 16 32  1  0
 17 18  1  0
 17 19  2  0
 19 20  1  0
 19 33  1  0
 20 21  2  0
 20 34  1  0
 21 35  1  0
 22 23  1  0
 22 36  1  0
 23 24  2  0
 23 37  1  0
 24 25  1  0
 24 38  1  0
 26 27  2  0
 26 39  1  0
 27 28  1  0
 27 40  1  0
 28 41  1  0
M  END
>  <r_exp_dg>  (10) 
-8.48127

>  <AmberAM1BCCCache>  (10) 
gASVZgMAAAAAAABdlCiMFm51bXB5Ll9jb3JlLm11bHRpYXJyYXmUjAZzY2FsYXKUk5SMBW51bXB5lIwFZHR5cGWUk5SMAmY4lImIh5RSlChLA4wBPJROTk5K/////0r/////SwB0lGJDCDGq3R4OPwbAlIaUUpRoA2gJQwh5zjv+kjkgQJSGlFKUaANoCUMIMardHg4/BsCUhpRSlGgDaAlDCDGq3R4OPwbAlIaUUpRoA2gJQwjK5JNUogj+v5SGlFKUaANoCUMIGvgEJVCq77+UhpRSlGgDaAlDCO6VPZkiNfQ/lIaUUpRoA2gJQwjdykmTvYsSwJSGlFKUaANoCUMI7baERFlUG0CUhpRSlGgDaAlDCPAnMLWWoee/lIaUUpRoA2gJQwhG36l/essUwJSGlFKUaANoCUMIDKwrFMUbIkCUhpRSlGgDaAlDCH0XIA5OwxzAlIaUUpRoA2gJQwhzxjS08sgVwJSGlFKUaANoCUMIrejDlDzo8D+UhpRSlGgDaAlDCB/6bZ7A1QTAlIaUUpRoA2gJQwgUnRVPPBf8P5SGlFKUaANoCUMIINph9gBg+r+UhpRSlGgDaAlDCDxPtsW2cAHAlIaUUpRoA2gJQwhSd/66bwXwv5SGlFKUaANoCUMIyDXte3jY/L+UhpRSlGgDaAlDCDZNTUxGRey/lIaUUpRoA2gJQwhBG1OcDZkHwJSGlFKUaANoCUMIH+lxAHwzE0CUhpRSlGgDaAlDCMblXNsOaCDAlIaUUpRoA2gJQwh+Ud7+rIfxv5SGlFKUaANoCUMIo8NlvRIw97+UhpRSlGgDaAlDCFJ3/rpvBfC/lIaUUpRoA2gJQwiM6hTOiiD/P5SGlFKUaANoCUMIQwPwpixSDkCUhpRSlGgDaAlDCNATPtkxqQ1AlIaUUpRoA2gJQwhjROFMOYv7P5SGlFKUaANoCUMIvyxNl598/D+UhpRSlGgDaAlDCE1X8aoayvo/lIaUUpRoA2gJQwj+Xzjdh2kAQJSGlFKUaANoCUMIz1Gs1l76AECUhpRSlGgDaAlDCEojRegu3fw/lIaUUpRoA2gJQwgu9btRcn/XP5SGlFKUaANoCUMIYBA1ik2e/T+UhpRSlGgDaAlDCKk/XfWAu/s/lIaUUpRoA2gJQwiPHsGQdg39P5SGlFKUZS4=

>  <experimental dG reference units>  (10) 
kcal/mol

>  <experimental dG reference field>  (10) 
r_exp_dg

>  <kJ/mol experimental dG>  (10) 
-35.48563368

>  <kcal/mol experimental dG>  (10) 
-8.48127

$$$$
6p
     RDKit          3D

 41 43  0  0  1  0  0  0  0  0999 V2000
   21.4988   -5.7203    2.2201 Cl  0  0  0  0  0  0  0  0  0  0  0  0
   20.2886   -4.5340    1.9262 C   0  0  0  0  0  0  0  0  0  0  0  0
   19.8318   -4.3018    0.6205 C   0  0  0  0  0  0  0  0  0  0  0  0
   20.3788   -5.2727   -0.6930 Cl  0  0  0  0  0  0  0  0  0  0  0  0
   18.8395   -3.3406    0.3983 C   0  0  0  0  0  0  0  0  0  0  0  0
   18.2630   -2.6605    1.4818 C   0  0  0  0  0  0  0  0  0  0  0  0
   18.6949   -2.9101    2.7923 C   0  0  0  0  0  0  0  0  0  0  0  0
   18.0410   -2.2058    3.8266 N   0  0  0  0  0  0  0  0  0  0  0  0
   18.4853   -1.9443    5.0638 C   0  0  0  0  0  0  0  0  0  0  0  0
   19.5856   -2.2793    5.4881 O   0  0  0  0  0  0  0  0  0  0  0  0
   17.5912   -1.2581    5.7844 N   0  0  0  0  0  0  0  0  0  0  0  0
   17.7661   -0.7577    7.1003 C   0  0  0  0  0  0  0  0  0  0  0  0
   16.9964    0.3340    7.5112 C   0  0  0  0  0  0  0  0  0  0  0  0
   15.8810    0.6110    6.7856 O   0  0  0  0  0  0  0  0  0  0  0  0
   15.3584    1.8555    6.8009 C   0  0  0  0  0  0  0  0  0  0  0  0
   15.8264    2.7275    5.8268 C   0  0  0  0  0  0  0  0  0  0  0  0
   15.2230    3.9668    5.6665 C   0  0  0  0  0  0  0  0  0  0  0  0
   15.7359    4.8294    4.5423 C   0  0  0  0  0  0  0  0  0  0  0  0
   14.8609    5.7755    4.2174 F   0  0  0  0  0  0  0  0  0  0  0  0
   16.8790    5.3902    4.9175 F   0  0  0  0  0  0  0  0  0  0  0  0
   15.9706    4.0693    3.4755 F   0  0  0  0  0  0  0  0  0  0  0  0
   14.1724    4.3444    6.5300 C   0  0  0  0  0  0  0  0  0  0  0  0
   13.7152    3.4670    7.5296 C   0  0  0  0  0  0  0  0  0  0  0  0
   14.3026    2.2010    7.6586 C   0  0  0  0  0  0  0  0  0  0  0  0
   17.1456    0.9699    8.6923 N   0  0  0  0  0  0  0  0  0  0  0  0
   17.9950    0.4249    9.5762 C   0  0  0  0  0  0  0  0  0  0  0  0
   18.7181   -0.7453    9.3224 C   0  0  0  0  0  0  0  0  0  0  0  0
   18.6231   -1.3355    8.0563 C   0  0  0  0  0  0  0  0  0  0  0  0
   19.7187   -3.8509    3.0107 C   0  0  0  0  0  0  0  0  0  0  0  0
   18.4908   -3.1479   -0.6069 H   0  0  0  0  0  0  0  0  0  0  0  0
   17.4953   -1.9251    1.2934 H   0  0  0  0  0  0  0  0  0  0  0  0
   17.1591   -1.7888    3.5720 H   0  0  0  0  0  0  0  0  0  0  0  0
   16.7695   -0.9381    5.2921 H   0  0  0  0  0  0  0  0  0  0  0  0
   16.6219    2.4213    5.1656 H   0  0  0  0  0  0  0  0  0  0  0  0
   13.6995    5.3091    6.4198 H   0  0  0  0  0  0  0  0  0  0  0  0
   12.9026    3.7544    8.1785 H   0  0  0  0  0  0  0  0  0  0  0  0
   13.9349    1.4904    8.3873 H   0  0  0  0  0  0  0  0  0  0  0  0
   18.0756    0.9152   10.5337 H   0  0  0  0  0  0  0  0  0  0  0  0
   19.3650   -1.1650   10.0773 H   0  0  0  0  0  0  0  0  0  0  0  0
   19.1950   -2.2296    7.8601 H   0  0  0  0  0  0  0  0  0  0  0  0
   20.0641   -4.0955    4.0032 H   0  0  0  0  0  0  0  0  0  0  0  0
  1  2  1  0
  2 29  2  0
  2  3  1  0
  3  4  1  0
  3  5  2  0
  5  6  1  0
  5 30  1  0
  6  7  2  0
  6 31  1  0
  7  8  1  0
  7 29  1  0
  8  9  1  0
  8 32  1  0
  9 10  2  0
  9 11  1  0
 11 12  1  0
 11 33  1  0
 12 28  2  0
 12 13  1  0
 13 14  1  0
 13 25  2  0
 14 15  1  0
 15 24  1  0
 15 16  2  0
 16 17  1  0
 16 34  1  0
 17 18  1  0
 17 22  2  0
 18 19  1  0
 18 20  1  0
 18 21  1  0
 22 23  1  0
 22 35  1  0
 23 24  2  0
 23 36  1  0
 24 37  1  0
 25 26  1  0
 26 27  2  0
 26 38  1  0
 27 28  1  0
 27 39  1  0
 28 40  1  0
 29 41  1  0
M  END
>  <r_exp_dg>  (11) 
-9.65303

>  <AmberAM1BCCCache>  (11) 
gASVZgMAAAAAAABdlCiMFm51bXB5Ll9jb3JlLm11bHRpYXJyYXmUjAZzY2FsYXKUk5SMBW51bXB5lIwFZHR5cGWUk5SMAmY4lImIh5RSlChLA4wBPJROTk5K/////0r/////SwB0lGJDCONhin5rZ+m/lIaUUpRoA2gJQwhTKQNv2QLgP5SGlFKUaANoCUMIEKMx6GZ3q7+UhpRSlGgDaAlDCFhrki3cBum/lIaUUpRoA2gJQwhPQ1L4gxjyv5SGlFKUaANoCUMIFZnBqZfi+L+UhpRSlGgDaAlDCMFV+LuiiOw/lIaUUpRoA2gJQwhzxjS08sgVwJSGlFKUaANoCUMIDKwrFMUbIkCUhpRSlGgDaAlDCH0XIA5OwxzAlIaUUpRoA2gJQwh14IqVaL8UwJSGlFKUaANoCUMIBBUgV7Vi6L+UhpRSlGgDaAlDCL61oy5rYBtAlIaUUpRoA2gJQwjdykmTvYsSwJSGlFKUaANoCUMIqJrB8NoE9D+UhpRSlGgDaAlDCBr4BCVQqu+/lIaUUpRoA2gJQwjK5JNUogj+v5SGlFKUaANoCUMIec47/pI5IECUhpRSlGgDaAlDCDGq3R4OPwbAlIaUUpRoA2gJQwgxqt0eDj8GwJSGlFKUaANoCUMIMardHg4/BsCUhpRSlGgDaAlDCFJ3/rpvBfC/lIaUUpRoA2gJQwijw2W9EjD3v5SGlFKUaANoCUMIOFZiVmVX8b+UhpRSlGgDaAlDCMblXNsOaCDAlIaUUpRoA2gJQwjx55DqjT8TQJSGlFKUaANoCUMIQRtTnA2ZB8CUhpRSlGgDaAlDCKtWVfu25Ou/lIaUUpRoA2gJQwiba87SCE8AwJSGlFKUaANoCUMIGhW54QVu/T+UhpRSlGgDaAlDCCxUbgI74gBAlIaUUpRoA2gJQwhzEXytVcENQJSGlFKUaANoCUMI5gAue1BqDkCUhpRSlGgDaAlDCEfvmCVD8P4/lIaUUpRoA2gJQwiPHsGQdg39P5SGlFKUaANoCUMI7jrZncjr+z+UhpRSlGgDaAlDCGAQNYpNnv0/lIaUUpRoA2gJQwgu9btRcn/XP5SGlFKUaANoCUMIjx7BkHYN/T+UhpRSlGgDaAlDCM9RrNZe+gBAlIaUUpRoA2gJQwg0NlVGEBz8P5SGlFKUZS4=

>  <experimental dG reference units>  (11) 
kcal/mol

>  <experimental dG reference field>  (11) 
r_exp_dg

>  <kJ/mol experimental dG>  (11) 
-40.388277519999995

>  <kcal/mol experimental dG>  (11) 
-9.65303

$$$$
1
     RDKit          3D

 41 43  0  0  1  0  0  0  0  0999 V2000
   14.8155    5.7227    4.1679 F   0  0  0  0  0  0  0  0  0  0  0  0
   15.7434    4.8539    4.5645 C   0  0  0  0  0  0  0  0  0  0  0  0
   16.8135    5.5136    4.9964 F   0  0  0  0  0  0  0  0  0  0  0  0
   16.0994    4.1056    3.5230 F   0  0  0  0  0  0  0  0  0  0  0  0
   15.2310    3.9730    5.6749 C   0  0  0  0  0  0  0  0  0  0  0  0
   15.8396    2.7345    5.8359 C   0  0  0  0  0  0  0  0  0  0  0  0
   15.3657    1.8637    6.8081 C   0  0  0  0  0  0  0  0  0  0  0  0
   15.8808    0.6169    6.7852 O   0  0  0  0  0  0  0  0  0  0  0  0
   16.9908    0.3296    7.5138 C   0  0  0  0  0  0  0  0  0  0  0  0
   17.7544   -0.7645    7.1013 C   0  0  0  0  0  0  0  0  0  0  0  0
   17.5681   -1.2733    5.7901 N   0  0  0  0  0  0  0  0  0  0  0  0
   18.4811   -1.9229    5.0583 C   0  0  0  0  0  0  0  0  0  0  0  0
   19.6063   -2.1740    5.4667 O   0  0  0  0  0  0  0  0  0  0  0  0
   18.0369   -2.2055    3.8256 N   0  0  0  0  0  0  0  0  0  0  0  0
   18.6937   -2.9247    2.7963 C   0  0  0  0  0  0  0  0  0  0  0  0
   19.6984   -3.8995    2.9998 C   0  0  0  0  0  0  0  0  0  0  0  0
   20.0639   -4.3121    4.2308 F   0  0  0  0  0  0  0  0  0  0  0  0
   20.3027   -4.5361    1.9079 C   0  0  0  0  0  0  0  0  0  0  0  0
   19.8805   -4.2573    0.6062 C   0  0  0  0  0  0  0  0  0  0  0  0
   20.4184   -4.9195   -0.4417 F   0  0  0  0  0  0  0  0  0  0  0  0
   18.8546   -3.3274    0.4008 C   0  0  0  0  0  0  0  0  0  0  0  0
   18.2638   -2.6678    1.4869 C   0  0  0  0  0  0  0  0  0  0  0  0
   18.6144   -1.3410    8.0535 C   0  0  0  0  0  0  0  0  0  0  0  0
   18.7152   -0.7507    9.3200 C   0  0  0  0  0  0  0  0  0  0  0  0
   17.9986    0.4243    9.5745 C   0  0  0  0  0  0  0  0  0  0  0  0
   17.1483    0.9696    8.6911 N   0  0  0  0  0  0  0  0  0  0  0  0
   14.3094    2.2097    7.6677 C   0  0  0  0  0  0  0  0  0  0  0  0
   13.7098    3.4691    7.5328 C   0  0  0  0  0  0  0  0  0  0  0  0
   14.1668    4.3417    6.5269 C   0  0  0  0  0  0  0  0  0  0  0  0
   16.6385    2.4143    5.1815 H   0  0  0  0  0  0  0  0  0  0  0  0
   16.7193   -0.9978    5.3166 H   0  0  0  0  0  0  0  0  0  0  0  0
   17.1540   -1.7950    3.5677 H   0  0  0  0  0  0  0  0  0  0  0  0
   21.0680   -5.2773    2.0808 H   0  0  0  0  0  0  0  0  0  0  0  0
   18.5150   -3.1226   -0.6025 H   0  0  0  0  0  0  0  0  0  0  0  0
   17.4842   -1.9435    1.2986 H   0  0  0  0  0  0  0  0  0  0  0  0
   19.1866   -2.2340    7.8552 H   0  0  0  0  0  0  0  0  0  0  0  0
   19.3644   -1.1696   10.0724 H   0  0  0  0  0  0  0  0  0  0  0  0
   18.0886    0.9219   10.5275 H   0  0  0  0  0  0  0  0  0  0  0  0
   13.9431    1.5017    8.3978 H   0  0  0  0  0  0  0  0  0  0  0  0
   12.8879    3.7459    8.1780 H   0  0  0  0  0  0  0  0  0  0  0  0
   13.6809    5.2968    6.4002 H   0  0  0  0  0  0  0  0  0  0  0  0
  1  2  1  0
  2  3  1  0
  2  4  1  0
  2  5  1  0
  5 29  2  0
  5  6  1  0
  6  7  2  0
  6 30  1  0
  7  8  1  0
  7 27  1  0
  8  9  1  0
  9 26  2  0
  9 10  1  0
 10 11  1  0
 10 23  2  0
 11 12  1  0
 11 31  1  0
 12 13  2  0
 12 14  1  0
 14 15  1  0
 14 32  1  0
 15 22  1  0
 15 16  2  0
 16 17  1  0
 16 18  1  0
 18 19  2  0
 18 33  1  0
 19 20  1  0
 19 21  1  0
 21 22  2  0
 21 34  1  0
 22 35  1  0
 23 24  1  0
 23 36  1  0
 24 25  2  0
 24 37  1  0
 25 26  1  0
 25 38  1  0
 27 28  2  0
 27 39  1  0
 28 29  1  0
 28 40  1  0
 29 41  1  0
M  END
>  <r_exp_dg>  (12) 
-9.72017

>  <AmberAM1BCCCache>  (12) 
gASVZgMAAAAAAABdlCiMFm51bXB5Ll9jb3JlLm11bHRpYXJyYXmUjAZzY2FsYXKUk5SMBW51bXB5lIwFZHR5cGWUk5SMAmY4lImIh5RSlChLA4wBPJROTk5K/////0r/////SwB0lGJDCJ/H7kRZOQbAlIaUUpRoA2gJQwjJ0LAw/DggQJSGlFKUaANoCUMIn8fuRFk5BsCUhpRSlGgDaAlDCJ/H7kRZOQbAlIaUUpRoA2gJQwhM0uvAWA3+v5SGlFKUaANoCUMIk9y8rC1T77+UhpRSlGgDaAlDCCataYQkAPQ/lIaUUpRoA2gJQwhrx0BE2YASwJSGlFKUaANoCUMIXbqNkz1fG0CUhpRSlGgDaAlDCAnwzy8ibOi/lIaUUpRoA2gJQwgy3mJccqgUwJSGlFKUaANoCUMIITByZxMJIkCUhpRSlGgDaAlDCIEQdH2f3BzAlIaUUpRoA2gJQwgC0NZVSTkVwJSGlFKUaANoCUMITRTrHAFyxD+UhpRSlGgDaAlDCIqSfksWBfM/lIaUUpRoA2gJQwgtvrGzRsX6v5SGlFKUaANoCUMIFU0of6YqAcCUhpRSlGgDaAlDCDn7/VoLDvk/lIaUUpRoA2gJQwi76FXHwRL5v5SGlFKUaANoCUMIpguxMpXO/b+UhpRSlGgDaAlDCOpRRslEy/C/lIaUUpRoA2gJQwg6KP0ks07sv5SGlFKUaANoCUMIABJ/0mibB8CUhpRSlGgDaAlDCJDsek9gPhNAlIaUUpRoA2gJQwh24+eopWggwJSGlFKUaANoCUMIu0O6whtc8b+UhpRSlGgDaAlDCCWxvSnJNPe/lIaUUpRoA2gJQwjVZFYnJgrwv5SGlFKUaANoCUMICv28YdQb/z+UhpRSlGgDaAlDCGsFfu08mA5AlIaUUpRoA2gJQwg9EUjIiR8OQJSGlFKUaANoCUMI2+4wW6us/z+UhpRSlGgDaAlDCCMeWcbeyf0/lIaUUpRoA2gJQwixWL50JxABQJSGlFKUaANoCUMIDluAoAP4AECUhpRSlGgDaAlDCMg17Xt42Pw/lIaUUpRoA2gJQwgnP1ygmGzXP5SGlFKUaANoCUMI3iLdHZeZ/T+UhpRSlGgDaAlDCCZSBYnKtvs/lIaUUpRoA2gJQwgNMWkkwAj9P5SGlFKUZS4=

>  <experimental dG reference units>  (12) 
kcal/mol

>  <experimental dG reference field>  (12) 
r_exp_dg

>  <kJ/mol experimental dG>  (12) 
-40.66919128

>  <kcal/mol experimental dG>  (12) 
-9.72017

$$$$
6h
     RDKit          3D

 44 46  0  0  1  0  0  0  0  0999 V2000
   16.7774    5.4121    4.9572 F   0  0  0  0  0  0  0  0  0  0  0  0
   15.7176    4.7129    4.5657 C   0  0  0  0  0  0  0  0  0  0  0  0
   16.0912    3.9254    3.5571 F   0  0  0  0  0  0  0  0  0  0  0  0
   14.7737    5.5494    4.1378 F   0  0  0  0  0  0  0  0  0  0  0  0
   15.2295    3.8742    5.7154 C   0  0  0  0  0  0  0  0  0  0  0  0
   15.8289    2.6376    5.9114 C   0  0  0  0  0  0  0  0  0  0  0  0
   15.3604    1.8044    6.9202 C   0  0  0  0  0  0  0  0  0  0  0  0
   15.8749    0.5534    6.9537 O   0  0  0  0  0  0  0  0  0  0  0  0
   17.0477    0.3139    7.5812 C   0  0  0  0  0  0  0  0  0  0  0  0
   17.8026   -0.7747    7.1290 C   0  0  0  0  0  0  0  0  0  0  0  0
   17.5943   -1.2826    5.8141 N   0  0  0  0  0  0  0  0  0  0  0  0
   18.4868   -1.9484    5.0683 C   0  0  0  0  0  0  0  0  0  0  0  0
   19.5898   -2.2848    5.4744 O   0  0  0  0  0  0  0  0  0  0  0  0
   18.0425   -2.2057    3.8310 N   0  0  0  0  0  0  0  0  0  0  0  0
   18.6928   -2.9142    2.7931 C   0  0  0  0  0  0  0  0  0  0  0  0
   18.2554   -2.6767    1.4834 C   0  0  0  0  0  0  0  0  0  0  0  0
   18.8450   -3.3510    0.4035 C   0  0  0  0  0  0  0  0  0  0  0  0
   19.8578   -4.2957    0.6235 C   0  0  0  0  0  0  0  0  0  0  0  0
   20.3929   -5.1216   -0.5250 C   0  0  0  0  0  0  0  0  0  0  0  0
   20.3031   -4.5253    1.9314 C   0  0  0  0  0  0  0  0  0  0  0  0
   19.7213   -3.8535    3.0174 C   0  0  0  0  0  0  0  0  0  0  0  0
   18.6968   -1.3383    8.0598 C   0  0  0  0  0  0  0  0  0  0  0  0
   18.8548   -0.7321    9.3140 C   0  0  0  0  0  0  0  0  0  0  0  0
   18.1456    0.4494    9.5857 C   0  0  0  0  0  0  0  0  0  0  0  0
   17.2459    0.9672    8.7375 N   0  0  0  0  0  0  0  0  0  0  0  0
   14.3058    2.1862    7.7731 C   0  0  0  0  0  0  0  0  0  0  0  0
   13.7130    3.4445    7.5903 C   0  0  0  0  0  0  0  0  0  0  0  0
   14.1748    4.2796    6.5582 C   0  0  0  0  0  0  0  0  0  0  0  0
   16.6065    2.2894    5.2520 H   0  0  0  0  0  0  0  0  0  0  0  0
   16.7633   -0.9648    5.3369 H   0  0  0  0  0  0  0  0  0  0  0  0
   17.1630   -1.7863    3.5788 H   0  0  0  0  0  0  0  0  0  0  0  0
   17.4690   -1.9554    1.3026 H   0  0  0  0  0  0  0  0  0  0  0  0
   18.4903   -3.1628   -0.5970 H   0  0  0  0  0  0  0  0  0  0  0  0
   20.8432   -6.0487   -0.1645 H   0  0  0  0  0  0  0  0  0  0  0  0
   21.1505   -4.5592   -1.0703 H   0  0  0  0  0  0  0  0  0  0  0  0
   19.5887   -5.3827   -1.2166 H   0  0  0  0  0  0  0  0  0  0  0  0
   21.0711   -5.2606    2.1171 H   0  0  0  0  0  0  0  0  0  0  0  0
   20.0750   -4.0934    4.0068 H   0  0  0  0  0  0  0  0  0  0  0  0
   19.2658   -2.2348    7.8443 H   0  0  0  0  0  0  0  0  0  0  0  0
   19.5478   -1.1330   10.0436 H   0  0  0  0  0  0  0  0  0  0  0  0
   18.2810    0.9785   10.5204 H   0  0  0  0  0  0  0  0  0  0  0  0
   13.9362    1.5138    8.5425 H   0  0  0  0  0  0  0  0  0  0  0  0
   12.9011    3.7609    8.2326 H   0  0  0  0  0  0  0  0  0  0  0  0
   13.6908    5.2319    6.4025 H   0  0  0  0  0  0  0  0  0  0  0  0
  1  2  1  0
  2  3  1  0
  2  4  1  0
  2  5  1  0
  5 28  2  0
  5  6  1  0
  6  7  2  0
  6 29  1  0
  7  8  1  0
  7 26  1  0
  8  9  1  0
  9 25  2  0
  9 10  1  0
 10 11  1  0
 10 22  2  0
 11 12  1  0
 11 30  1  0
 12 13  2  0
 12 14  1  0
 14 15  1  0
 14 31  1  0
 15 21  1  0
 15 16  2  0
 16 17  1  0
 16 32  1  0
 17 18  2  0
 17 33  1  0
 18 19  1  0
 18 20  1  0
 19 34  1  0
 19 35  1  0
 19 36  1  0
 20 21  2  0
 20 37  1  0
 21 38  1  0
 22 23  1  0
 22 39  1  0
 23 24  2  0
 23 40  1  0
 24 25  1  0
 24 41  1  0
 26 27  2  0
 26 42  1  0
 27 28  1  0
 27 43  1  0
 28 44  1  0
M  END
>  <r_exp_dg>  (13) 
-9.98459

>  <AmberAM1BCCCache>  (13) 
gASVnwMAAAAAAABdlCiMFm51bXB5Ll9jb3JlLm11bHRpYXJyYXmUjAZzY2FsYXKUk5SMBW51bXB5lIwFZHR5cGWUk5SMAmY4lImIh5RSlChLA4wBPJROTk5K/////0r/////SwB0lGJDCKNKFRrrSQbAlIaUUpRoA2gJQwjnSvI33jggQJSGlFKUaANoCUMIo0oVGutJBsCUhpRSlGgDaAlDCKNKFRrrSQbAlIaUUpRoA2gJQwheAeCGSA7+v5SGlFKUaANoCUMIQjGdiZy177+UhpRSlGgDaAlDCOVv6bcLkPQ/lIaUUpRoA2gJQwgB0twfJ40SwJSGlFKUaANoCUMIVLOU+bkuG0CUhpRSlGgDaAlDCOuG6NWlKua/lIaUUpRoA2gJQwgN5HrgB+UUwJSGlFKUaANoCUMI1yqkeewCIkCUhpRSlGgDaAlDCEUc8W7b3BzAlIaUUpRoA2gJQwiv1A3E8IEVwJSGlFKUaANoCUMIBwkpb1cP4z+UhpRSlGgDaAlDCC5eA4lrZfy/lIaUUpRoA2gJQwiwHWZhFcL0v5SGlFKUaANoCUMIcznpFs+b8b+UhpRSlGgDaAlDCNMEqDzTL+O/lIaUUpRoA2gJQwiwHWZhFcL0v5SGlFKUaANoCUMILl4DiWtl/L+UhpRSlGgDaAlDCHRz1VKxEe2/lIaUUpRoA2gJQwjmKzvhvIMHwJSGlFKUaANoCUMIWOSgn+4ZE0CUhpRSlGgDaAlDCFhppqHDaCDAlIaUUpRoA2gJQwhYaabZmr3xv5SGlFKUaANoCUMIN+Cx77g197+UhpRSlGgDaAlDCCuPxpVdO/C/lIaUUpRoA2gJQwj4zcib5Br/P5SGlFKUaANoCUMIWPeLuTU3DkCUhpRSlGgDaAlDCFoR4pqrLQ1AlIaUUpRoA2gJQwj9G8s/Rv77P5SGlFKUaANoCUMIMV4DCVta+T+UhpRSlGgDaAlDCGUrku97teA/lIaUUpRoA2gJQwhlK5Lve7XgP5SGlFKUaANoCUMIZSuS73u14D+UhpRSlGgDaAlDCDFeAwlbWvk/lIaUUpRoA2gJQwj9G8s/Rv77P5SGlFKUaANoCUMIKEHEka8PAUCUhpRSlGgDaAlDCHALfQ1Bp/w/lIaUUpRoA2gJQwjKlZvmuqfWP5SGlFKUaANoCUMIzPPoV6eY/T+UhpRSlGgDaAlDCBQjEcPatfs/lIaUUpRoA2gJQwj7AXVe0Af9P5SGlFKUZS4=

>  <experimental dG reference units>  (13) 
kcal/mol

>  <experimental dG reference field>  (13) 
r_exp_dg

>  <kJ/mol experimental dG>  (13) 
-41.77552456000001

>  <kcal/mol experimental dG>  (13) 
-9.98459

$$$$
6i
     RDKit          3D

 53 55  0  0  1  0  0  0  0  0999 V2000
   16.9765    5.2471    4.8207 F   0  0  0  0  0  0  0  0  0  0  0  0
   15.7761    4.7639    4.4987 C   0  0  0  0  0  0  0  0  0  0  0  0
   15.9022    3.9862    3.4265 F   0  0  0  0  0  0  0  0  0  0  0  0
   14.9613    5.7738    4.2093 F   0  0  0  0  0  0  0  0  0  0  0  0
   15.2642    3.9261    5.6413 C   0  0  0  0  0  0  0  0  0  0  0  0
   15.8294    2.6678    5.7967 C   0  0  0  0  0  0  0  0  0  0  0  0
   15.3633    1.8225    6.7970 C   0  0  0  0  0  0  0  0  0  0  0  0
   15.8818    0.5783    6.7979 O   0  0  0  0  0  0  0  0  0  0  0  0
   17.0045    0.3213    7.5141 C   0  0  0  0  0  0  0  0  0  0  0  0
   17.7720   -0.7707    7.1052 C   0  0  0  0  0  0  0  0  0  0  0  0
   17.5841   -1.2761    5.7926 N   0  0  0  0  0  0  0  0  0  0  0  0
   18.4809   -1.9486    5.0638 C   0  0  0  0  0  0  0  0  0  0  0  0
   19.5811   -2.2807    5.4901 O   0  0  0  0  0  0  0  0  0  0  0  0
   18.0395   -2.2055    3.8246 N   0  0  0  0  0  0  0  0  0  0  0  0
   18.6953   -2.9167    2.7932 C   0  0  0  0  0  0  0  0  0  0  0  0
   18.2667   -2.6840    1.4820 C   0  0  0  0  0  0  0  0  0  0  0  0
   18.8388   -3.3937    0.4142 C   0  0  0  0  0  0  0  0  0  0  0  0
   19.8316   -4.3708    0.6353 C   0  0  0  0  0  0  0  0  0  0  0  0
   20.3211   -5.2513   -0.5221 C   0  0  0  0  0  0  0  0  0  0  0  0
   19.1689   -6.0828   -1.0917 C   0  0  0  0  0  0  0  0  0  0  0  0
   21.3959   -6.2639   -0.1031 C   0  0  0  0  0  0  0  0  0  0  0  0
   20.9055   -4.3651   -1.6271 C   0  0  0  0  0  0  0  0  0  0  0  0
   20.2905   -4.5591    1.9508 C   0  0  0  0  0  0  0  0  0  0  0  0
   19.7150   -3.8584    3.0172 C   0  0  0  0  0  0  0  0  0  0  0  0
   18.6281   -1.3437    8.0648 C   0  0  0  0  0  0  0  0  0  0  0  0
   18.7309   -0.7429    9.3280 C   0  0  0  0  0  0  0  0  0  0  0  0
   18.0116    0.4354    9.5733 C   0  0  0  0  0  0  0  0  0  0  0  0
   17.1586    0.9707    8.6866 N   0  0  0  0  0  0  0  0  0  0  0  0
   14.3302    2.2097    7.6709 C   0  0  0  0  0  0  0  0  0  0  0  0
   13.7572    3.4825    7.5256 C   0  0  0  0  0  0  0  0  0  0  0  0
   14.2267    4.3347    6.5072 C   0  0  0  0  0  0  0  0  0  0  0  0
   16.5954    2.3300    5.1118 H   0  0  0  0  0  0  0  0  0  0  0  0
   16.7562   -0.9613    5.3065 H   0  0  0  0  0  0  0  0  0  0  0  0
   17.1606   -1.7823    3.5692 H   0  0  0  0  0  0  0  0  0  0  0  0
   17.4845   -1.9658    1.2828 H   0  0  0  0  0  0  0  0  0  0  0  0
   18.4627   -3.2192   -0.5817 H   0  0  0  0  0  0  0  0  0  0  0  0
   19.4874   -6.6347   -1.9760 H   0  0  0  0  0  0  0  0  0  0  0  0
   18.3234   -5.4623   -1.3844 H   0  0  0  0  0  0  0  0  0  0  0  0
   18.8052   -6.8236   -0.3807 H   0  0  0  0  0  0  0  0  0  0  0  0
   22.2795   -5.7610    0.2950 H   0  0  0  0  0  0  0  0  0  0  0  0
   21.0230   -6.9702    0.6430 H   0  0  0  0  0  0  0  0  0  0  0  0
   21.7325   -6.8585   -0.9519 H   0  0  0  0  0  0  0  0  0  0  0  0
   21.7408   -3.7708   -1.2521 H   0  0  0  0  0  0  0  0  0  0  0  0
   21.2675   -4.9644   -2.4630 H   0  0  0  0  0  0  0  0  0  0  0  0
   20.1668   -3.6790   -2.0399 H   0  0  0  0  0  0  0  0  0  0  0  0
   21.0555   -5.2846    2.1815 H   0  0  0  0  0  0  0  0  0  0  0  0
   20.0598   -4.0925    4.0124 H   0  0  0  0  0  0  0  0  0  0  0  0
   19.1944   -2.2424    7.8731 H   0  0  0  0  0  0  0  0  0  0  0  0
   19.3814   -1.1523   10.0858 H   0  0  0  0  0  0  0  0  0  0  0  0
   18.0994    0.9466   10.5222 H   0  0  0  0  0  0  0  0  0  0  0  0
   13.9655    1.5213    8.4218 H   0  0  0  0  0  0  0  0  0  0  0  0
   12.9533    3.7986    8.1754 H   0  0  0  0  0  0  0  0  0  0  0  0
   13.7765    5.3061    6.3757 H   0  0  0  0  0  0  0  0  0  0  0  0
  1  2  1  0
  2  3  1  0
  2  4  1  0
  2  5  1  0
  5 31  2  0
  5  6  1  0
  6  7  2  0
  6 32  1  0
  7  8  1  0
  7 29  1  0
  8  9  1  0
  9 28  2  0
  9 10  1  0
 10 11  1  0
 10 25  2  0
 11 12  1  0
 11 33  1  0
 12 13  2  0
 12 14  1  0
 14 15  1  0
 14 34  1  0
 15 24  1  0
 15 16  2  0
 16 17  1  0
 16 35  1  0
 17 18  2  0
 17 36  1  0
 18 19  1  0
 18 23  1  0
 19 20  1  0
 19 21  1  0
 19 22  1  0
 20 37  1  0
 20 38  1  0
 20 39  1  0
 21 40  1  0
 21 41  1  0
 21 42  1  0
 22 43  1  0
 22 44  1  0
 22 45  1  0
 23 24  2  0
 23 46  1  0
 24 47  1  0
 25 26  1  0
 25 48  1  0
 26 27  2  0
 26 49  1  0
 27 28  1  0
 27 50  1  0
 29 30  2  0
 29 51  1  0
 30 31  1  0
 30 52  1  0
 31 53  1  0
M  END
>  <r_exp_dg>  (14) 
-10.2436

>  <AmberAM1BCCCache>  (14) 
gASVSgQAAAAAAABdlCiMFm51bXB5Ll9jb3JlLm11bHRpYXJyYXmUjAZzY2FsYXKUk5SMBW51bXB5lIwFZHR5cGWUk5SMAmY4lImIh5RSlChLA4wBPJROTk5K/////0r/////SwB0lGJDCP4pNty5SAbAlIaUUpRoA2gJQwgQE2qHKjkgQJSGlFKUaANoCUMI/ik23LlIBsCUhpRSlGgDaAlDCP4pNty5SAbAlIaUUpRoA2gJQwgTwCEL5gv+v5SGlFKUaANoCUMIrq4gktew77+UhpRSlGgDaAlDCC+xpzNukvQ/lIaUUpRoA2gJQwjeQs6WfIASwJSGlFKUaANoCUMIpkOEmFIvG0CUhpRSlGgDaAlDCFcEbN7gJea/lIaUUpRoA2gJQwi7U4tBb+QUwJSGlFKUaANoCUMIAPMbyTgDIkCUhpRSlGgDaAlDCPOLAdBC3BzAlIaUUpRoA2gJQwiLRf86RnUVwJSGlFKUaANoCUMIJYKdt6t04z+UhpRSlGgDaAlDCFYM99oDDP2/lIaUUpRoA2gJQwja5a+UI1/0v5SGlFKUaANoCUMIz2G2aiGs7r+UhpRSlGgDaAlDCDA1L+idSre/lIaUUpRoA2gJQwgC50cRzz3wv5SGlFKUaANoCUMIAudHEc898L+UhpRSlGgDaAlDCALnRxHPPfC/lIaUUpRoA2gJQwja5a+UI1/0v5SGlFKUaANoCUMIVgz32gMM/b+UhpRSlGgDaAlDCODwWFvsDO2/lIaUUpRoA2gJQwhBC1yji4IHwJSGlFKUaANoCUMI2XVxVHUOE0CUhpRSlGgDaAlDCC+hLlJ3aCDAlIaUUpRoA2gJQwgNKOhdOLvxv5SGlFKUaANoCUMI7Z7zc1Yz97+UhpRSlGgDaAlDCOFNCBr7OPC/lIaUUpRoA2gJQwhDD4cXRx3/P5SGlFKUaANoCUMI/Rdr92Y4DkCUhpRSlGgDaAlDCP4xwdjcLg1AlIaUUpRoA2gJQwilX0vnhOj7P5SGlFKUaANoCUMIZJh7ASml+T+UhpRSlGgDaAlDCMUVt98q7Ns/lIaUUpRoA2gJQwjFFbffKuzbP5SGlFKUaANoCUMIxRW33yrs2z+UhpRSlGgDaAlDCMUVt98q7Ns/lIaUUpRoA2gJQwjFFbffKuzbP5SGlFKUaANoCUMIxRW33yrs2z+UhpRSlGgDaAlDCMUVt98q7Ns/lIaUUpRoA2gJQwjFFbffKuzbP5SGlFKUaANoCUMIxRW33yrs2z+UhpRSlGgDaAlDCGSYewEppfk/lIaUUpRoA2gJQwilX0vnhOj7P5SGlFKUaANoCUMIzWGjz+AQAUCUhpRSlGgDaAlDCLtMO4mjqfw/lIaUUpRoA2gJQwjzmpTVRLHWP5SGlFKUaANoCUMIFzWn0wmb/T+UhpRSlGgDaAlDCF9kzz49uPs/lIaUUpRoA2gJQwhGQzPaMgr9P5SGlFKUZS4=

>  <experimental dG reference units>  (14) 
kcal/mol

>  <experimental dG reference field>  (14) 
r_exp_dg

>  <kJ/mol experimental dG>  (14) 
-42.85922240000001

>  <kcal/mol experimental dG>  (14) 
-10.2436

$$$$
11c
     RDKit          3D

 50 52  0  0  1  0  0  0  0  0999 V2000
   20.0694   -4.2969    4.2305 F   0  0  0  0  0  0  0  0  0  0  0  0
   19.7038   -3.8878    2.9983 C   0  0  0  0  0  0  0  0  0  0  0  0
   18.6936   -2.9187    2.7962 C   0  0  0  0  0  0  0  0  0  0  0  0
   18.0331   -2.2056    3.8354 N   0  0  0  0  0  0  0  0  0  0  0  0
   18.4898   -1.9009    5.0593 C   0  0  0  0  0  0  0  0  0  0  0  0
   19.6368   -2.1126    5.4267 O   0  0  0  0  0  0  0  0  0  0  0  0
   17.5794   -1.2687    5.8185 N   0  0  0  0  0  0  0  0  0  0  0  0
   17.7958   -0.7578    7.1289 C   0  0  0  0  0  0  0  0  0  0  0  0
   17.0216    0.3101    7.5990 C   0  0  0  0  0  0  0  0  0  0  0  0
   15.8247    0.5283    7.0011 O   0  0  0  0  0  0  0  0  0  0  0  0
   15.3536    1.7921    6.8972 C   0  0  0  0  0  0  0  0  0  0  0  0
   15.8561    2.5502    5.8504 C   0  0  0  0  0  0  0  0  0  0  0  0
   15.3061    3.7978    5.5676 C   0  0  0  0  0  0  0  0  0  0  0  0
   15.8382    4.6084    4.3908 C   0  0  0  0  0  0  0  0  0  0  0  0
   16.1137    3.7418    3.1468 C   0  0  0  0  0  0  0  0  0  0  0  0
   17.1519    5.2740    4.8091 C   0  0  0  0  0  0  0  0  0  0  0  0
   14.8163    5.6785    3.9775 C   0  0  0  0  0  0  0  0  0  0  0  0
   14.2643    4.2734    6.3980 C   0  0  0  0  0  0  0  0  0  0  0  0
   13.7700    3.5175    7.4731 C   0  0  0  0  0  0  0  0  0  0  0  0
   14.3165    2.2534    7.7180 C   0  0  0  0  0  0  0  0  0  0  0  0
   17.2348    0.9674    8.7574 N   0  0  0  0  0  0  0  0  0  0  0  0
   18.1618    0.4603    9.5827 C   0  0  0  0  0  0  0  0  0  0  0  0
   18.8914   -0.7002    9.2888 C   0  0  0  0  0  0  0  0  0  0  0  0
   18.7265   -1.3042    8.0357 C   0  0  0  0  0  0  0  0  0  0  0  0
   18.2609   -2.6664    1.4847 C   0  0  0  0  0  0  0  0  0  0  0  0
   18.8536   -3.3234    0.3943 C   0  0  0  0  0  0  0  0  0  0  0  0
   19.8765   -4.2560    0.6019 C   0  0  0  0  0  0  0  0  0  0  0  0
   20.4234   -4.9222   -0.4418 F   0  0  0  0  0  0  0  0  0  0  0  0
   20.2986   -4.5320    1.9042 C   0  0  0  0  0  0  0  0  0  0  0  0
   17.1392   -1.8108    3.5899 H   0  0  0  0  0  0  0  0  0  0  0  0
   16.7161   -0.9999    5.3710 H   0  0  0  0  0  0  0  0  0  0  0  0
   16.6454    2.1052    5.2666 H   0  0  0  0  0  0  0  0  0  0  0  0
   16.4234    4.3563    2.3016 H   0  0  0  0  0  0  0  0  0  0  0  0
   15.2207    3.1982    2.8288 H   0  0  0  0  0  0  0  0  0  0  0  0
   16.9186    3.0223    3.3095 H   0  0  0  0  0  0  0  0  0  0  0  0
   17.0119    5.9324    5.6688 H   0  0  0  0  0  0  0  0  0  0  0  0
   17.9008    4.5334    5.0876 H   0  0  0  0  0  0  0  0  0  0  0  0
   17.5660    5.8685    3.9928 H   0  0  0  0  0  0  0  0  0  0  0  0
   14.6490    6.4257    4.7515 H   0  0  0  0  0  0  0  0  0  0  0  0
   15.1441    6.2301    3.0952 H   0  0  0  0  0  0  0  0  0  0  0  0
   13.8471    5.2338    3.7429 H   0  0  0  0  0  0  0  0  0  0  0  0
   13.8250    5.2392    6.2125 H   0  0  0  0  0  0  0  0  0  0  0  0
   12.9692    3.8989    8.0914 H   0  0  0  0  0  0  0  0  0  0  0  0
   13.9305    1.6312    8.5106 H   0  0  0  0  0  0  0  0  0  0  0  0
   18.2968    0.9691   10.5265 H   0  0  0  0  0  0  0  0  0  0  0  0
   19.6076   -1.0961    9.9961 H   0  0  0  0  0  0  0  0  0  0  0  0
   19.3174   -2.1801    7.8070 H   0  0  0  0  0  0  0  0  0  0  0  0
   17.4777   -1.9431    1.3066 H   0  0  0  0  0  0  0  0  0  0  0  0
   18.5138   -3.1194   -0.6100 H   0  0  0  0  0  0  0  0  0  0  0  0
   21.0632   -5.2776    2.0648 H   0  0  0  0  0  0  0  0  0  0  0  0
  1  2  1  0
  2 29  2  0
  2  3  1  0
  3  4  1  0
  3 25  2  0
  4  5  1  0
  4 30  1  0
  5  6  2  0
  5  7  1  0
  7  8  1  0
  7 31  1  0
  8 24  2  0
  8  9  1  0
  9 10  1  0
  9 21  2  0
 10 11  1  0
 11 20  1  0
 11 12  2  0
 12 13  1  0
 12 32  1  0
 13 14  1  0
 13 18  2  0
 14 15  1  0
 14 16  1  0
 14 17  1  0
 15 33  1  0
 15 34  1  0
 15 35  1  0
 16 36  1  0
 16 37  1  0
 16 38  1  0
 17 39  1  0
 17 40  1  0
 17 41  1  0
 18 19  1  0
 18 42  1  0
 19 20  2  0
 19 43  1  0
 20 44  1  0
 21 22  1  0
 22 23  2  0
 22 45  1  0
 23 24  1  0
 23 46  1  0
 24 47  1  0
 25 26  1  0
 25 48  1  0
 26 27  2  0
 26 49  1  0
 27 28  1  0
 27 29  1  0
 29 50  1  0
M  END
>  <r_exp_dg>  (15) 
-10.2066

>  <AmberAM1BCCCache>  (15) 
gASVEQQAAAAAAABdlCiMFm51bXB5Ll9jb3JlLm11bHRpYXJyYXmUjAZzY2FsYXKUk5SMBW51bXB5lIwFZHR5cGWUk5SMAmY4lImIh5RSlChLA4wBPJROTk5K/////0r/////SwB0lGJDCOKfDBsp9Pq/lIaUUpRoA2gJQwhJuiuTpHXyP5SGlFKUaANoCUMIfUlzNSCGyj+UhpRSlGgDaAlDCEKHzNkTURXAlIaUUpRoA2gJQwiCVHclLv0hQJSGlFKUaANoCUMI7shKF1joHMCUhpRSlGgDaAlDCImcnmPRdxTAlIaUUpRoA2gJQwhYXj3X8C7sv5SGlFKUaANoCUMIfPiuShS0G0CUhpRSlGgDaAlDCHt9VbK1pBLAlIaUUpRoA2gJQwhBvYIWGWL0P5SGlFKUaANoCUMIq4SMioL097+UhpRSlGgDaAlDCGJl8ScAvOO/lIaUUpRoA2gJQwhg7v5kcizAv5SGlFKUaANoCUMIoLZJahBe8L+UhpRSlGgDaAlDCKC2SWoQXvC/lIaUUpRoA2gJQwigtklqEF7wv5SGlFKUaANoCUMIwXF8LKG1+L+UhpRSlGgDaAlDCDqvMJ79Qfa/lIaUUpRoA2gJQwjBcXwsobX4v5SGlFKUaANoCUMIOEN2N0xKIMCUhpRSlGgDaAlDCPQyw5+5PhNAlIaUUpRoA2gJQwgJd2IrjSsIwJSGlFKUaANoCUMIkP7CUVnr67+UhpRSlGgDaAlDCOUuHdluKvG/lIaUUpRoA2gJQwjQ9hNJ6Jz9v5SGlFKUaANoCUMIPh4nS+Gu+D+UhpRSlGgDaAlDCHDKsC6kQfm/lIaUUpRoA2gJQwhMwJfe8ykBwJSGlFKUaANoCUMIYqCalBgIDkCUhpRSlGgDaAlDCJCU0LnLgA5AlIaUUpRoA2gJQwj8ZqJyd+j7P5SGlFKUaANoCUMITfsxX4PC3D+UhpRSlGgDaAlDCE37MV+Dwtw/lIaUUpRoA2gJQwhN+zFfg8LcP5SGlFKUaANoCUMITfsxX4PC3D+UhpRSlGgDaAlDCE37MV+Dwtw/lIaUUpRoA2gJQwhN+zFfg8LcP5SGlFKUaANoCUMITfsxX4PC3D+UhpRSlGgDaAlDCE37MV+Dwtw/lIaUUpRoA2gJQwhN+zFfg8LcP5SGlFKUaANoCUMIAZtONWPV+T+UhpRSlGgDaAlDCHakVuTTdPk/lIaUUpRoA2gJQwhxcKoh6If7P5SGlFKUaANoCUMIO8sAYfDv1T+UhpRSlGgDaAlDCM1YFmxOefw/lIaUUpRoA2gJQwju7lbESrAAQJSGlFKUaANoCUMIHOOM6f0oAUCUhpRSlGgDaAlDCLQ3egdEy/0/lIaUUpRoA2gJQwgmDdbzyH3/P5SGlFKUZS4=

>  <experimental dG reference units>  (15) 
kcal/mol

>  <experimental dG reference field>  (15) 
r_exp_dg

>  <kJ/mol experimental dG>  (15) 
-42.704414400000005

>  <kcal/mol experimental dG>  (15) 
-10.2066

$$$$
6o
     RDKit          3D

 47 49  0  0  1  0  0  0  0  0999 V2000
   16.0651    3.9404    3.5665 F   0  0  0  0  0  0  0  0  0  0  0  0
   15.7385    4.7286    4.5981 C   0  0  0  0  0  0  0  0  0  0  0  0
   14.8319    5.6156    4.1889 F   0  0  0  0  0  0  0  0  0  0  0  0
   16.8353    5.3687    5.0152 F   0  0  0  0  0  0  0  0  0  0  0  0
   15.2179    3.8774    5.7272 C   0  0  0  0  0  0  0  0  0  0  0  0
   15.8271    2.6460    5.9243 C   0  0  0  0  0  0  0  0  0  0  0  0
   15.3548    1.8059    6.9240 C   0  0  0  0  0  0  0  0  0  0  0  0
   15.8727    0.5574    6.9418 O   0  0  0  0  0  0  0  0  0  0  0  0
   17.0452    0.3197    7.5805 C   0  0  0  0  0  0  0  0  0  0  0  0
   17.8128   -0.7627    7.1354 C   0  0  0  0  0  0  0  0  0  0  0  0
   17.5964   -1.2800    5.8278 N   0  0  0  0  0  0  0  0  0  0  0  0
   18.4854   -1.9435    5.0732 C   0  0  0  0  0  0  0  0  0  0  0  0
   19.5892   -2.2816    5.4840 O   0  0  0  0  0  0  0  0  0  0  0  0
   18.0410   -2.1973    3.8326 N   0  0  0  0  0  0  0  0  0  0  0  0
   18.6943   -2.9076    2.7953 C   0  0  0  0  0  0  0  0  0  0  0  0
   19.7218   -3.8513    3.0131 C   0  0  0  0  0  0  0  0  0  0  0  0
   20.2849   -4.5454    1.9346 C   0  0  0  0  0  0  0  0  0  0  0  0
   19.8278   -4.3039    0.6277 C   0  0  0  0  0  0  0  0  0  0  0  0
   20.2698   -5.1331   -0.5038 C   0  0  0  0  0  0  0  0  0  0  0  0
   20.4002   -4.7142   -1.6488 O   0  0  0  0  0  0  0  0  0  0  0  0
   20.4411   -6.4076   -0.1515 O   0  0  0  0  0  0  0  0  0  0  0  0
   20.7107   -7.3555   -1.1641 C   0  0  0  0  0  0  0  0  0  0  0  0
   18.8496   -3.3293    0.4035 C   0  0  0  0  0  0  0  0  0  0  0  0
   18.2623   -2.6597    1.4855 C   0  0  0  0  0  0  0  0  0  0  0  0
   18.7093   -1.3267    8.0615 C   0  0  0  0  0  0  0  0  0  0  0  0
   18.8538   -0.7184    9.3173 C   0  0  0  0  0  0  0  0  0  0  0  0
   18.1233    0.4401    9.5992 C   0  0  0  0  0  0  0  0  0  0  0  0
   17.2331    0.9680    8.7478 N   0  0  0  0  0  0  0  0  0  0  0  0
   14.3014    2.1731    7.7774 C   0  0  0  0  0  0  0  0  0  0  0  0
   13.6998    3.4267    7.5978 C   0  0  0  0  0  0  0  0  0  0  0  0
   14.1577    4.2713    6.5693 C   0  0  0  0  0  0  0  0  0  0  0  0
   16.6246    2.3098    5.2782 H   0  0  0  0  0  0  0  0  0  0  0  0
   16.7542   -0.9752    5.3595 H   0  0  0  0  0  0  0  0  0  0  0  0
   17.1533   -1.7901    3.5885 H   0  0  0  0  0  0  0  0  0  0  0  0
   20.0632   -4.0949    4.0076 H   0  0  0  0  0  0  0  0  0  0  0  0
   21.0406   -5.2938    2.1250 H   0  0  0  0  0  0  0  0  0  0  0  0
   20.9538   -8.3235   -0.7203 H   0  0  0  0  0  0  0  0  0  0  0  0
   21.5638   -7.0568   -1.7831 H   0  0  0  0  0  0  0  0  0  0  0  0
   19.8420   -7.4910   -1.8153 H   0  0  0  0  0  0  0  0  0  0  0  0
   18.4886   -3.1265   -0.5947 H   0  0  0  0  0  0  0  0  0  0  0  0
   17.4863   -1.9311    1.3023 H   0  0  0  0  0  0  0  0  0  0  0  0
   19.2833   -2.2154    7.8480 H   0  0  0  0  0  0  0  0  0  0  0  0
   19.5368   -1.1203   10.0451 H   0  0  0  0  0  0  0  0  0  0  0  0
   18.2339    0.9406   10.5515 H   0  0  0  0  0  0  0  0  0  0  0  0
   13.9384    1.4975    8.5406 H   0  0  0  0  0  0  0  0  0  0  0  0
   12.8823    3.7436    8.2301 H   0  0  0  0  0  0  0  0  0  0  0  0
   13.6827    5.2277    6.4193 H   0  0  0  0  0  0  0  0  0  0  0  0
  1  2  1  0
  2  3  1  0
  2  4  1  0
  2  5  1  0
  5 31  2  0
  5  6  1  0
  6  7  2  0
  6 32  1  0
  7  8  1  0
  7 29  1  0
  8  9  1  0
  9 28  2  0
  9 10  1  0
 10 11  1  0
 10 25  2  0
 11 12  1  0
 11 33  1  0
 12 13  2  0
 12 14  1  0
 14 15  1  0
 14 34  1  0
 15 24  1  0
 15 16  2  0
 16 17  1  0
 16 35  1  0
 17 18  2  0
 17 36  1  0
 18 19  1  0
 18 23  1  0
 19 20  2  0
 19 21  1  0
 21 22  1  0
 22 37  1  0
 22 38  1  0
 22 39  1  0
 23 24  2  0
 23 40  1  0
 24 41  1  0
 25 26  1  0
 25 42  1  0
 26 27  2  0
 26 43  1  0
 27 28  1  0
 27 44  1  0
 29 30  2  0
 29 45  1  0
 30 31  1  0
 30 46  1  0
 31 47  1  0
M  END
>  <r_exp_dg>  (16) 
-8.44621

>  <AmberAM1BCCCache>  (16) 
gASV2AMAAAAAAABdlCiMFm51bXB5Ll9jb3JlLm11bHRpYXJyYXmUjAZzY2FsYXKUk5SMBW51bXB5lIwFZHR5cGWUk5SMAmY4lImIh5RSlChLA4wBPJROTk5K/////0r/////SwB0lGJDCDKd8H00PwbAlIaUUpRoA2gJQwi5EXdmiTkgQJSGlFKUaANoCUMIMp3wfTQ/BsCUhpRSlGgDaAlDCDKd8H00PwbAlIaUUpRoA2gJQwjMyrkS7wj+v5SGlFKUaANoCUMIHMRQoemq77+UhpRSlGgDaAlDCKe0mzKOBPQ/lIaUUpRoA2gJQwhdRNPC0IsSwJSGlFKUaANoCUMIPTwa/1dgG0CUhpRSlGgDaAlDCAfha9NOY+i/lIaUUpRoA2gJQwjGWDOvjcsUwJSGlFKUaANoCUMIhW2VW9YtIkCUhpRSlGgDaAlDCIuUTH8rnxzAlIaUUpRoA2gJQwjbOHhgcREWwJSGlFKUaANoCUMIBLddXmrs8z+UhpRSlGgDaAlDCGtDqjrLZAHAlIaUUpRoA2gJQwjvNIpLFPXgv5SGlFKUaANoCUMI/ofs8UGo/r+UhpRSlGgDaAlDCCPSJS1Plh5AlIaUUpRoA2gJQwiO9/rNn7EZwJSGlFKUaANoCUMIB4uynTXVFMCUhpRSlGgDaAlDCGTjwHiuR/g/lIaUUpRoA2gJQwjvNIpLFPXgv5SGlFKUaANoCUMIa0OqOstkAcCUhpRSlGgDaAlDCK0ioXdQ5eu/lIaUUpRoA2gJQwhBDmb7M5kHwJSGlFKUaANoCUMIcW4Hu3o/E0CUhpRSlGgDaAlDCIaiIXMYaCDAlIaUUpRoA2gJQwg6PIgUslfxv5SGlFKUaANoCUMIpKmLe18w97+UhpRSlGgDaAlDCFRdJHm8BfC/lIaUUpRoA2gJQwhFCXNn9u/+P5SGlFKUaANoCUMI5g0bHCpqDkCUhpRSlGgDaAlDCLgZ5fZ28Q1AlIaUUpRoA2gJQwgBKE2gJLb9P5SGlFKUaANoCUMIjR5F8bMW/j+UhpRSlGgDaAlDCA3xOs7ZQ+M/lIaUUpRoA2gJQwgN8TrO2UPjP5SGlFKUaANoCUMIDfE6ztlD4z+UhpRSlGgDaAlDCI0eRfGzFv4/lIaUUpRoA2gJQwgBKE2gJLb9P5SGlFKUaANoCUMIzl6Zdzj6AECUhpRSlGgDaAlDCI44m9IpDf0/lIaUUpRoA2gJQwgqXSRZP37XP5SGlFKUaANoCUMIXyoPzACe/T+UhpRSlGgDaAlDCO1Us9976/s/lIaUUpRoA2gJQwiOOJvSKQ39P5SGlFKUZS4=

>  <experimental dG reference units>  (16) 
kcal/mol

>  <experimental dG reference field>  (16) 
r_exp_dg

>  <kJ/mol experimental dG>  (16) 
-35.338942640000006

>  <kcal/mol experimental dG>  (16) 
-8.44621

$$$$
6m
     RDKit          3D

 49 51  0  0  1  0  0  0  0  0999 V2000
   14.8540    5.7903    4.2294 F   0  0  0  0  0  0  0  0  0  0  0  0
   15.7331    4.8467    4.5502 C   0  0  0  0  0  0  0  0  0  0  0  0
   16.8754    5.4109    4.9265 F   0  0  0  0  0  0  0  0  0  0  0  0
   15.9651    4.0934    3.4786 F   0  0  0  0  0  0  0  0  0  0  0  0
   15.2324    3.9767    5.6737 C   0  0  0  0  0  0  0  0  0  0  0  0
   15.8349    2.7347    5.8284 C   0  0  0  0  0  0  0  0  0  0  0  0
   15.3685    1.8672    6.8071 C   0  0  0  0  0  0  0  0  0  0  0  0
   15.8921    0.6193    6.7825 O   0  0  0  0  0  0  0  0  0  0  0  0
   17.0022    0.3296    7.5121 C   0  0  0  0  0  0  0  0  0  0  0  0
   17.7584   -0.7725    7.1048 C   0  0  0  0  0  0  0  0  0  0  0  0
   17.5839   -1.2689    5.7861 N   0  0  0  0  0  0  0  0  0  0  0  0
   18.4821   -1.9468    5.0632 C   0  0  0  0  0  0  0  0  0  0  0  0
   19.5809   -2.2805    5.4903 O   0  0  0  0  0  0  0  0  0  0  0  0
   18.0438   -2.2038    3.8212 N   0  0  0  0  0  0  0  0  0  0  0  0
   18.6992   -2.9128    2.7862 C   0  0  0  0  0  0  0  0  0  0  0  0
   19.7215   -3.8504    3.0149 C   0  0  0  0  0  0  0  0  0  0  0  0
   20.3103   -4.5380    1.9502 C   0  0  0  0  0  0  0  0  0  0  0  0
   19.8612   -4.3651    0.6313 C   0  0  0  0  0  0  0  0  0  0  0  0
   20.3575   -5.2150   -0.3796 N   0  0  0  0  0  0  0  0  0  0  0  0
   19.8738   -5.0715   -1.7338 C   0  0  0  0  0  0  0  0  0  0  0  0
   20.6449   -6.5903    0.0063 C   0  0  0  0  0  0  0  0  0  0  0  0
   18.8670   -3.3898    0.3966 C   0  0  0  0  0  0  0  0  0  0  0  0
   18.2837   -2.6841    1.4657 C   0  0  0  0  0  0  0  0  0  0  0  0
   18.6043   -1.3588    8.0664 C   0  0  0  0  0  0  0  0  0  0  0  0
   18.7151   -0.7582    9.3281 C   0  0  0  0  0  0  0  0  0  0  0  0
   18.0040    0.4239    9.5757 C   0  0  0  0  0  0  0  0  0  0  0  0
   17.1540    0.9653    8.6907 N   0  0  0  0  0  0  0  0  0  0  0  0
   14.3158    2.2169    7.6727 C   0  0  0  0  0  0  0  0  0  0  0  0
   13.7259    3.4848    7.5459 C   0  0  0  0  0  0  0  0  0  0  0  0
   14.1842    4.3539    6.5392 C   0  0  0  0  0  0  0  0  0  0  0  0
   16.6245    2.4185    5.1620 H   0  0  0  0  0  0  0  0  0  0  0  0
   16.7623   -0.9466    5.2961 H   0  0  0  0  0  0  0  0  0  0  0  0
   17.1611   -1.7881    3.5687 H   0  0  0  0  0  0  0  0  0  0  0  0
   20.0788   -4.0778    4.0060 H   0  0  0  0  0  0  0  0  0  0  0  0
   21.0909   -5.2487    2.1817 H   0  0  0  0  0  0  0  0  0  0  0  0
   20.0220   -4.0580   -2.1120 H   0  0  0  0  0  0  0  0  0  0  0  0
   18.8138   -5.3233   -1.7701 H   0  0  0  0  0  0  0  0  0  0  0  0
   20.4025   -5.7405   -2.4144 H   0  0  0  0  0  0  0  0  0  0  0  0
   19.8989   -6.9745    0.7081 H   0  0  0  0  0  0  0  0  0  0  0  0
   20.6524   -7.2573   -0.8574 H   0  0  0  0  0  0  0  0  0  0  0  0
   21.6317   -6.6475    0.4707 H   0  0  0  0  0  0  0  0  0  0  0  0
   18.4950   -3.2063   -0.5997 H   0  0  0  0  0  0  0  0  0  0  0  0
   17.5098   -1.9603    1.2603 H   0  0  0  0  0  0  0  0  0  0  0  0
   19.1613   -2.2648    7.8773 H   0  0  0  0  0  0  0  0  0  0  0  0
   19.3613   -1.1738   10.0858 H   0  0  0  0  0  0  0  0  0  0  0  0
   18.0966    0.9319   10.5238 H   0  0  0  0  0  0  0  0  0  0  0  0
   13.9491    1.5158    8.4088 H   0  0  0  0  0  0  0  0  0  0  0  0
   12.9159    3.7791    8.1989 H   0  0  0  0  0  0  0  0  0  0  0  0
   13.7144    5.3178    6.4222 H   0  0  0  0  0  0  0  0  0  0  0  0
  1  2  1  0
  2  3  1  0
  2  4  1  0
  2  5  1  0
  5 30  2  0
  5  6  1  0
  6  7  2  0
  6 31  1  0
  7  8  1  0
  7 28  1  0
  8  9  1  0
  9 27  2  0
  9 10  1  0
 10 11  1  0
 10 24  2  0
 11 12  1  0
 11 32  1  0
 12 13  2  0
 12 14  1  0
 14 15  1  0
 14 33  1  0
 15 23  1  0
 15 16  2  0
 16 17  1  0
 16 34  1  0
 17 18  2  0
 17 35  1  0
 18 19  1  0
 18 22  1  0
 19 20  1  0
 19 21  1  0
 20 36  1  0
 20 37  1  0
 20 38  1  0
 21 39  1  0
 21 40  1  0
 21 41  1  0
 22 23  2  0
 22 42  1  0
 23 43  1  0
 24 25  1  0
 24 44  1  0
 25 26  2  0
 25 45  1  0
 26 27  1  0
 26 46  1  0
 28 29  2  0
 28 47  1  0
 29 30  1  0
 29 48  1  0
 30 49  1  0
M  END
>  <r_exp_dg>  (17) 
-8.58909

>  <AmberAM1BCCCache>  (17) 
gASV/gMAAAAAAABdlCiMFm51bXB5Ll9jb3JlLm11bHRpYXJyYXmUjAZzY2FsYXKUk5SMBW51bXB5lIwFZHR5cGWUk5SMAmY4lImIh5RSlChLA4wBPJROTk5K/////0r/////SwB0lGJDCFHUYfe/SQbAlIaUUpRoA2gJQwh7KJ8A6TggQJSGlFKUaANoCUMIUdRh979JBsCUhpRSlGgDaAlDCFHUYfe/SQbAlIaUUpRoA2gJQwi6FHlB8g3+v5SGlFKUaANoCUMI+VfP/u+077+UhpRSlGgDaAlDCM9XzKWpwPQ/lIaUUpRoA2gJQwgHGGSk/4ASwJSGlFKUaANoCUMI2nCwtqsWG0CUhpRSlGgDaAlDCIvAKqnaaOW/lIaUUpRoA2gJQwi1J0A5BPEUwJSGlFKUaANoCUMI9wv0g8HeIUCUhpRSlGgDaAlDCL9e1bHp9BzAlIaUUpRoA2gJQwi1J0A5BPEUwJSGlFKUaANoCUMICAgVb5mknj+UhpRSlGgDaAlDCH4gsem5avW/lIaUUpRoA2gJQwgQGpLwQuL/v5SGlFKUaANoCUMI8q/9gply+z+UhpRSlGgDaAlDCBhPQrYnmh7AlIaUUpRoA2gJQwiugVWEaCoBQJSGlFKUaANoCUMIroFVhGgqAUCUhpRSlGgDaAlDCBAakvBC4v+/lIaUUpRoA2gJQwh+ILHpuWr1v5SGlFKUaANoCUMIQYf3aSPS7b+UhpRSlGgDaAlDCJS1h76RgwfAlIaUUpRoA2gJQwjfobxc4AETQJSGlFKUaANoCUMIxIv52LhoIMCUhpRSlGgDaAlDCPl3uzyM7fG/lIaUUpRoA2gJQwiS80qqYjX3v5SGlFKUaANoCUMIzJ3b+E5r8L+UhpRSlGgDaAlDCJ26L+E6G/8/lIaUUpRoA2gJQwgIcAEIPR8OQJSGlFKUaANoCUMIIZGdbEfNDECUhpRSlGgDaAlDCHQU/F/phfs/lIaUUpRoA2gJQwhgQWKfQLv5P5SGlFKUaANoCUMIjxW16FjF3D+UhpRSlGgDaAlDCI8VtehYxdw/lIaUUpRoA2gJQwiPFbXoWMXcP5SGlFKUaANoCUMIjxW16FjF3D+UhpRSlGgDaAlDCI8VtehYxdw/lIaUUpRoA2gJQwiPFbXoWMXcP5SGlFKUaANoCUMIYEFin0C7+T+UhpRSlGgDaAlDCHQU/F/phfs/lIaUUpRoA2gJQwh6t3e02g8BQJSGlFKUaANoCUMIFfjjUpen/D+UhpRSlGgDaAlDCEdbR1r159U/lIaUUpRoA2gJQwhx4E+d/Zj9P5SGlFKUaANoCUMIuQ94CDG2+z+UhpRSlGgDaAlDCFrzX/ve1/w/lIaUUpRlLg==

>  <experimental dG reference units>  (17) 
kcal/mol

>  <experimental dG reference field>  (17) 
r_exp_dg

>  <kJ/mol experimental dG>  (17) 
-35.93675256

>  <kcal/mol experimental dG>  (17) 
-8.58909

$$$$
6j
     RDKit          3D

 45 47  0  0  1  0  0  0  0  0999 V2000
   20.8525   -6.5426   -1.8128 F   0  0  0  0  0  0  0  0  0  0  0  0
   20.6209   -6.1516   -0.5426 C   0  0  0  0  0  0  0  0  0  0  0  0
   19.5349   -6.8291   -0.1252 F   0  0  0  0  0  0  0  0  0  0  0  0
   21.6834   -6.5350    0.1976 F   0  0  0  0  0  0  0  0  0  0  0  0
   20.4365   -4.8127   -0.5049 O   0  0  0  0  0  0  0  0  0  0  0  0
   19.8912   -4.2382    0.6119 C   0  0  0  0  0  0  0  0  0  0  0  0
   20.3227   -4.5056    1.9239 C   0  0  0  0  0  0  0  0  0  0  0  0
   19.7186   -3.8565    3.0111 C   0  0  0  0  0  0  0  0  0  0  0  0
   18.6906   -2.9179    2.7944 C   0  0  0  0  0  0  0  0  0  0  0  0
   18.0375   -2.2068    3.8270 N   0  0  0  0  0  0  0  0  0  0  0  0
   18.4818   -1.9478    5.0642 C   0  0  0  0  0  0  0  0  0  0  0  0
   19.5817   -2.2845    5.4881 O   0  0  0  0  0  0  0  0  0  0  0  0
   17.5859   -1.2667    5.7886 N   0  0  0  0  0  0  0  0  0  0  0  0
   17.7654   -0.7660    7.1034 C   0  0  0  0  0  0  0  0  0  0  0  0
   17.0009    0.3301    7.5127 C   0  0  0  0  0  0  0  0  0  0  0  0
   15.8915    0.6127    6.7824 O   0  0  0  0  0  0  0  0  0  0  0  0
   15.3698    1.8585    6.8005 C   0  0  0  0  0  0  0  0  0  0  0  0
   15.8380    2.7227    5.8193 C   0  0  0  0  0  0  0  0  0  0  0  0
   15.2384    3.9636    5.6581 C   0  0  0  0  0  0  0  0  0  0  0  0
   15.7533    4.8135    4.5280 C   0  0  0  0  0  0  0  0  0  0  0  0
   15.7227    4.0964    3.4091 F   0  0  0  0  0  0  0  0  0  0  0  0
   15.0317    5.9161    4.3572 F   0  0  0  0  0  0  0  0  0  0  0  0
   17.0143    5.1410    4.7866 F   0  0  0  0  0  0  0  0  0  0  0  0
   14.1841    4.3462    6.5156 C   0  0  0  0  0  0  0  0  0  0  0  0
   13.7271    3.4798    7.5257 C   0  0  0  0  0  0  0  0  0  0  0  0
   14.3186    2.2152    7.6637 C   0  0  0  0  0  0  0  0  0  0  0  0
   17.1547    0.9698    8.6900 N   0  0  0  0  0  0  0  0  0  0  0  0
   18.0025    0.4254    9.5768 C   0  0  0  0  0  0  0  0  0  0  0  0
   18.7237   -0.7490    9.3251 C   0  0  0  0  0  0  0  0  0  0  0  0
   18.6237   -1.3421    8.0594 C   0  0  0  0  0  0  0  0  0  0  0  0
   18.2517   -2.6746    1.4881 C   0  0  0  0  0  0  0  0  0  0  0  0
   18.8569   -3.3206    0.4058 C   0  0  0  0  0  0  0  0  0  0  0  0
   21.1223   -5.2047    2.1146 H   0  0  0  0  0  0  0  0  0  0  0  0
   20.0664   -4.0996    4.0029 H   0  0  0  0  0  0  0  0  0  0  0  0
   17.1589   -1.7837    3.5696 H   0  0  0  0  0  0  0  0  0  0  0  0
   16.7629   -0.9465    5.2989 H   0  0  0  0  0  0  0  0  0  0  0  0
   16.6291    2.4089    5.1535 H   0  0  0  0  0  0  0  0  0  0  0  0
   13.7101    5.3078    6.3910 H   0  0  0  0  0  0  0  0  0  0  0  0
   12.9143    3.7753    8.1739 H   0  0  0  0  0  0  0  0  0  0  0  0
   13.9552    1.5168    8.4046 H   0  0  0  0  0  0  0  0  0  0  0  0
   18.0869    0.9259   10.5302 H   0  0  0  0  0  0  0  0  0  0  0  0
   19.3721   -1.1677   10.0804 H   0  0  0  0  0  0  0  0  0  0  0  0
   19.1961   -2.2346    7.8595 H   0  0  0  0  0  0  0  0  0  0  0  0
   17.4567   -1.9677    1.3048 H   0  0  0  0  0  0  0  0  0  0  0  0
   18.5194   -3.1107   -0.5986 H   0  0  0  0  0  0  0  0  0  0  0  0
  1  2  1  0
  2  3  1  0
  2  4  1  0
  2  5  1  0
  5  6  1  0
  6 32  2  0
  6  7  1  0
  7  8  2  0
  7 33  1  0
  8  9  1  0
  8 34  1  0
  9 10  1  0
  9 31  2  0
 10 11  1  0
 10 35  1  0
 11 12  2  0
 11 13  1  0
 13 14  1  0
 13 36  1  0
 14 30  2  0
 14 15  1  0
 15 16  1  0
 15 27  2  0
 16 17  1  0
 17 26  1  0
 17 18  2  0
 18 19  1  0
 18 37  1  0
 19 20  1  0
 19 24  2  0
 20 21  1  0
 20 22  1  0
 20 23  1  0
 24 25  1  0
 24 38  1  0
 25 26  2  0
 25 39  1  0
 26 40  1  0
 27 28  1  0
 28 29  2  0
 28 41  1  0
 29 30  1  0
 29 42  1  0
 30 43  1  0
 31 32  1  0
 31 44  1  0
 32 45  1  0
M  END
>  <r_exp_dg>  (18) 
-8.87368

>  <AmberAM1BCCCache>  (18) 
gASVsgMAAAAAAABdlCiMFm51bXB5Ll9jb3JlLm11bHRpYXJyYXmUjAZzY2FsYXKUk5SMBW51bXB5lIwFZHR5cGWUk5SMAmY4lImIh5RSlChLA4wBPJROTk5K/////0r/////SwB0lGJDCMLDZ8AKhATAlIaUUpRoA2gJQwjYjxKONkcjQJSGlFKUaANoCUMIwsNnwAqEBMCUhpRSlGgDaAlDCMLDZ8AKhATAlIaUUpRoA2gJQwi40NbRhzMRwJSGlFKUaANoCUMIMgkqpsMN5D+UhpRSlGgDaAlDCBLbmbc7z/G/lIaUUpRoA2gJQwhcv6g0ByD9v5SGlFKUaANoCUMIgCHl5XpL7T+UhpRSlGgDaAlDCEEoc1ff4BXAlIaUUpRoA2gJQwj2eaus4BsiQJSGlFKUaANoCUMI13wB8wS3HMCUhpRSlGgDaAlDCJ9Ei2QxvxTAlIaUUpRoA2gJQwjnLBsgi8Hov5SGlFKUaANoCUMIk1GjX6JgG0CUhpRSlGgDaAlDCAgvSmKGixLAlIaUUpRoA2gJQwj8CcC0twX0P5SGlFKUaANoCUMIcRkInZao77+UhpRSlGgDaAlDCHZ1lZDFB/6/lIaUUpRoA2gJQwhknLuWrjkgQJSGlFKUaANoCUMIh3LevJ8+BsCUhpRSlGgDaAlDCIdy3ryfPgbAlIaUUpRoA2gJQwiHct68nz4GwJSGlFKUaANoCUMI/gcA95IE8L+UhpRSlGgDaAlDCE9UZ/k1L/e/lIaUUpRoA2gJQwjk5mOSiFbxv5SGlFKUaANoCUMI2xfdQvNnIMCUhpRSlGgDaAlDCJiCrwXXSxNAlIaUUpRoA2gJQwiW41M6n5gHwJSGlFKUaANoCUMIAnhYc/3i67+UhpRSlGgDaAlDCFy/qDQHIP2/lIaUUpRoA2gJQwgS25m3O8/xv5SGlFKUaANoCUMItH8zTiqf/T+UhpRSlGgDaAlDCJ147cqV5/0/lIaUUpRoA2gJQwgeSXsPxMENQJSGlFKUaANoCUMI7jrvCJtSDkCUhpRSlGgDaAlDCJtel+kf8f4/lIaUUpRoA2gJQwjkjb9UUw79P5SGlFKUaANoCUMIQqrXYaXs+z+UhpRSlGgDaAlDCLR/M04qn/0/lIaUUpRoA2gJQwiBsrVh5YLXP5SGlFKUaANoCUMI5I2/VFMO/T+UhpRSlGgDaAlDCHmJqzjN+gBAlIaUUpRoA2gJQwideO3Klef9P5SGlFKUaANoCUMItH8zTiqf/T+UhpRSlGUu

>  <experimental dG reference units>  (18) 
kcal/mol

>  <experimental dG reference field>  (18) 
r_exp_dg

>  <kJ/mol experimental dG>  (18) 
-37.12747712

>  <kcal/mol experimental dG>  (18) 
-8.87368

$$$$
6k
     RDKit          3D

 51 54  0  0  1  0  0  0  0  0999 V2000
   16.0519    4.1602    3.4633 F   0  0  0  0  0  0  0  0  0  0  0  0
   15.7345    4.9058    4.5322 C   0  0  0  0  0  0  0  0  0  0  0  0
   14.8212    5.8174    4.1616 F   0  0  0  0  0  0  0  0  0  0  0  0
   16.8451    5.5266    4.9551 F   0  0  0  0  0  0  0  0  0  0  0  0
   15.2141    4.0127    5.6580 C   0  0  0  0  0  0  0  0  0  0  0  0
   15.8231    2.7585    5.8226 C   0  0  0  0  0  0  0  0  0  0  0  0
   15.3521    1.8837    6.8128 C   0  0  0  0  0  0  0  0  0  0  0  0
   15.8801    0.6281    6.8011 O   0  0  0  0  0  0  0  0  0  0  0  0
   16.9927    0.3311    7.5411 C   0  0  0  0  0  0  0  0  0  0  0  0
   17.7665   -0.7719    7.1318 C   0  0  0  0  0  0  0  0  0  0  0  0
   17.5750   -1.2873    5.8140 N   0  0  0  0  0  0  0  0  0  0  0  0
   18.4845   -1.9484    5.0757 C   0  0  0  0  0  0  0  0  0  0  0  0
   19.5917   -2.2820    5.4995 O   0  0  0  0  0  0  0  0  0  0  0  0
   18.0353   -2.2004    3.8310 N   0  0  0  0  0  0  0  0  0  0  0  0
   18.6987   -2.9009    2.7905 C   0  0  0  0  0  0  0  0  0  0  0  0
   18.2716   -2.6485    1.4693 C   0  0  0  0  0  0  0  0  0  0  0  0
   18.8453   -3.3508    0.3896 C   0  0  0  0  0  0  0  0  0  0  0  0
   19.8305   -4.3380    0.6290 C   0  0  0  0  0  0  0  0  0  0  0  0
   20.2377   -5.2775   -0.4244 C   0  0  0  0  0  0  0  0  0  0  0  0
   19.9861   -6.6601   -0.2399 C   0  0  0  0  0  0  0  0  0  0  0  0
   20.3357   -7.5987   -1.2350 C   0  0  0  0  0  0  0  0  0  0  0  0
   20.9468   -7.1561   -2.4315 C   0  0  0  0  0  0  0  0  0  0  0  0
   21.2080   -5.7781   -2.6224 C   0  0  0  0  0  0  0  0  0  0  0  0
   20.8505   -4.8409   -1.6228 C   0  0  0  0  0  0  0  0  0  0  0  0
   20.3034   -4.5401    1.9438 C   0  0  0  0  0  0  0  0  0  0  0  0
   19.7248   -3.8523    3.0226 C   0  0  0  0  0  0  0  0  0  0  0  0
   18.6513   -1.3360    8.0871 C   0  0  0  0  0  0  0  0  0  0  0  0
   18.7691   -0.7261    9.3515 C   0  0  0  0  0  0  0  0  0  0  0  0
   18.0285    0.4438    9.6098 C   0  0  0  0  0  0  0  0  0  0  0  0
   17.1511    0.9716    8.7265 N   0  0  0  0  0  0  0  0  0  0  0  0
   14.2861    2.2402    7.6803 C   0  0  0  0  0  0  0  0  0  0  0  0
   13.6877    3.5119    7.5415 C   0  0  0  0  0  0  0  0  0  0  0  0
   14.1469    4.3868    6.5256 C   0  0  0  0  0  0  0  0  0  0  0  0
   16.6180    2.4417    5.1613 H   0  0  0  0  0  0  0  0  0  0  0  0
   16.7374   -0.9873    5.3264 H   0  0  0  0  0  0  0  0  0  0  0  0
   17.1508   -1.7788    3.5748 H   0  0  0  0  0  0  0  0  0  0  0  0
   17.4879   -1.9314    1.2783 H   0  0  0  0  0  0  0  0  0  0  0  0
   18.4749   -3.1899   -0.6129 H   0  0  0  0  0  0  0  0  0  0  0  0
   19.5168   -7.0016    0.6713 H   0  0  0  0  0  0  0  0  0  0  0  0
   20.1412   -8.6513   -1.0811 H   0  0  0  0  0  0  0  0  0  0  0  0
   21.2123   -7.8692   -3.1997 H   0  0  0  0  0  0  0  0  0  0  0  0
   21.6652   -5.4339   -3.5393 H   0  0  0  0  0  0  0  0  0  0  0  0
   21.0424   -3.7866   -1.7727 H   0  0  0  0  0  0  0  0  0  0  0  0
   21.0563   -5.2914    2.1356 H   0  0  0  0  0  0  0  0  0  0  0  0
   20.0634   -4.0949    4.0189 H   0  0  0  0  0  0  0  0  0  0  0  0
   19.2236   -2.2276    7.8804 H   0  0  0  0  0  0  0  0  0  0  0  0
   19.4378   -1.1298   10.0961 H   0  0  0  0  0  0  0  0  0  0  0  0
   18.1179    0.9526   10.5580 H   0  0  0  0  0  0  0  0  0  0  0  0
   13.9319    1.5405    8.4226 H   0  0  0  0  0  0  0  0  0  0  0  0
   12.8752    3.8053    8.1911 H   0  0  0  0  0  0  0  0  0  0  0  0
   13.6652    5.3448    6.3992 H   0  0  0  0  0  0  0  0  0  0  0  0
  1  2  1  0
  2  3  1  0
  2  4  1  0
  2  5  1  0
  5 33  2  0
  5  6  1  0
  6  7  2  0
  6 34  1  0
  7  8  1  0
  7 31  1  0
  8  9  1  0
  9 30  2  0
  9 10  1  0
 10 11  1  0
 10 27  2  0
 11 12  1  0
 11 35  1  0
 12 13  2  0
 12 14  1  0
 14 15  1  0
 14 36  1  0
 15 26  1  0
 15 16  2  0
 16 17  1  0
 16 37  1  0
 17 18  2  0
 17 38  1  0
 18 19  1  0
 18 25  1  0
 19 24  1  0
 19 20  2  0
 20 21  1  0
 20 39  1  0
 21 22  2  0
 21 40  1  0
 22 23  1  0
 22 41  1  0
 23 24  2  0
 23 42  1  0
 24 43  1  0
 25 26  2  0
 25 44  1  0
 26 45  1  0
 27 28  1  0
 27 46  1  0
 28 29  2  0
 28 47  1  0
 29 30  1  0
 29 48  1  0
 31 32  2  0
 31 49  1  0
 32 33  1  0
 32 50  1  0
 33 51  1  0
M  END
>  <r_exp_dg>  (19) 
-10.3039

>  <AmberAM1BCCCache>  (19) 
gASVJAQAAAAAAABdlCiMFm51bXB5Ll9jb3JlLm11bHRpYXJyYXmUjAZzY2FsYXKUk5SMBW51bXB5lIwFZHR5cGWUk5SMAmY4lImIh5RSlChLA4wBPJROTk5K/////0r/////SwB0lGJDCDW/Vsi+SAbAlIaUUpRoA2gJQwjC7WFMKTkgQJSGlFKUaANoCUMINb9WyL5IBsCUhpRSlGgDaAlDCDW/Vsi+SAbAlIaUUpRoA2gJQwiD6mLj7wv+v5SGlFKUaANoCUMIiwOjQuuw77+UhpRSlGgDaAlDCHuL6rIcYvQ/lIaUUpRoA2gJQwhLjP32kIwSwJSGlFKUaANoCUMI3PeSDGI7G0CUhpRSlGgDaAlDCMBP5t+Dhua/lIaUUpRoA2gJQwhXnpu3ceQUwJSGlFKUaANoCUMIG00jg0AJIkCUhpRSlGgDaAlDCL3X8lsz0BzAlIaUUpRoA2gJQwibjGxvfpkVwJSGlFKUaANoCUMIts7KMDE65z+UhpRSlGgDaAlDCDkm6oAItf2/lIaUUpRoA2gJQwhNRJ0vGUzyv5SGlFKUaANoCUMIzBWMFq/A5L+UhpRSlGgDaAlDCMq4aeTaqdm/lIaUUpRoA2gJQwjo2YJ+ZYr2v5SGlFKUaANoCUMIQqiY51WF+L+UhpRSlGgDaAlDCLexoJbGJPi/lIaUUpRoA2gJQwhCqJjnVYX4v5SGlFKUaANoCUMI6NmCfmWK9r+UhpRSlGgDaAlDCE1EnS8ZTPK/lIaUUpRoA2gJQwg5JuqACLX9v5SGlFKUaANoCUMIvUXbCwAN7b+UhpRSlGgDaAlDCHmgfI+QggfAlIaUUpRoA2gJQwgPKoDIhBoTQJSGlFKUaANoCUMIfcY2jXhoIMCUhpRSlGgDaAlDCDdXrY36ivG/lIaUUpRoA2gJQwhbyTRMYDP3v5SGlFKUaANoCUMIUHhJ8gQ58L+UhpRSlGgDaAlDCNTkRT89Hf8/lIaUUpRoA2gJQwjFgkoLYjgOQJSGlFKUaANoCUMIDJgclR9fDUCUhpRSlGgDaAlDCGMpQDQuYfw/lIaUUpRoA2gJQwjFX64i9jX6P5SGlFKUaANoCUMIDHWArLNc+T+UhpRSlGgDaAlDCN6ASocA5Pg/lIaUUpRoA2gJQwjegEqHAOT4P5SGlFKUaANoCUMI3oBKhwDk+D+UhpRSlGgDaAlDCAx1gKyzXPk/lIaUUpRoA2gJQwjFX64i9jX6P5SGlFKUaANoCUMIYylANC5h/D+UhpRSlGgDaAlDCPPORA+4+ABAlIaUUpRoA2gJQwiRHXZZ4dn8P5SGlFKUaANoCUMIN/GPdB2x1j+UhpRSlGgDaAlDCKcKZvv/mv0/lIaUUpRoA2gJQwjwOY5mM7j7P5SGlFKUaANoCUMI1xjyASkK/T+UhpRSlGUu

>  <experimental dG reference units>  (19) 
kcal/mol

>  <experimental dG reference field>  (19) 
r_exp_dg

>  <kJ/mol experimental dG>  (19) 
-43.111517600000006

>  <kcal/mol experimental dG>  (19) 
-10.3039

$$$$
16
     RDKit          3D

 54 56  0  0  1  0  0  0  0  0999 V2000
   18.8444   -6.1491   -1.1788 F   0  0  0  0  0  0  0  0  0  0  0  0
   20.1095   -6.1354   -0.7604 C   0  0  0  0  0  0  0  0  0  0  0  0
   20.8737   -6.5582   -1.7651 F   0  0  0  0  0  0  0  0  0  0  0  0
   20.2685   -6.9881    0.2544 F   0  0  0  0  0  0  0  0  0  0  0  0
   20.5361   -4.8166   -0.4264 O   0  0  0  0  0  0  0  0  0  0  0  0
   19.9018   -4.2258    0.6396 C   0  0  0  0  0  0  0  0  0  0  0  0
   18.8644   -3.3204    0.4156 C   0  0  0  0  0  0  0  0  0  0  0  0
   18.2578   -2.6779    1.4927 C   0  0  0  0  0  0  0  0  0  0  0  0
   20.3282   -4.4913    1.9406 C   0  0  0  0  0  0  0  0  0  0  0  0
   19.7230   -3.8511    3.0183 C   0  0  0  0  0  0  0  0  0  0  0  0
   18.6956   -2.9186    2.7967 C   0  0  0  0  0  0  0  0  0  0  0  0
   18.0423   -2.2064    3.8229 N   0  0  0  0  0  0  0  0  0  0  0  0
   18.4844   -1.9396    5.0702 C   0  0  0  0  0  0  0  0  0  0  0  0
   19.5872   -2.2776    5.5039 O   0  0  0  0  0  0  0  0  0  0  0  0
   17.5753   -1.2291    5.7713 N   0  0  0  0  0  0  0  0  0  0  0  0
   17.7207   -0.7290    7.0832 C   0  0  0  0  0  0  0  0  0  0  0  0
   18.4894   -1.3741    8.0690 C   0  0  0  0  0  0  0  0  0  0  0  0
   18.6308   -0.7995    9.3311 C   0  0  0  0  0  0  0  0  0  0  0  0
   17.9953    0.4138    9.5838 C   0  0  0  0  0  0  0  0  0  0  0  0
   17.2211    1.0390    8.6656 N   0  0  0  0  0  0  0  0  0  0  0  0
   17.0637    0.4639    7.4363 C   0  0  0  0  0  0  0  0  0  0  0  0
   16.2279    1.0898    6.5223 O   0  0  0  0  0  0  0  0  0  0  0  0
   15.2878    2.0406    6.8843 C   0  0  0  0  0  0  0  0  0  0  0  0
   14.3907    1.7563    7.9234 C   0  0  0  0  0  0  0  0  0  0  0  0
   13.4257    2.6796    8.3075 C   0  0  0  0  0  0  0  0  0  0  0  0
   13.3225    3.8865    7.6333 C   0  0  0  0  0  0  0  0  0  0  0  0
   14.1832    4.1682    6.5768 C   0  0  0  0  0  0  0  0  0  0  0  0
   15.1809    3.2579    6.1734 C   0  0  0  0  0  0  0  0  0  0  0  0
   16.1309    3.5910    4.9850 C   0  0  0  0  0  0  0  0  0  0  0  0
   16.0110    2.5132    3.8798 C   0  0  0  0  0  0  0  0  0  0  0  0
   15.8043    4.9497    4.3035 C   0  0  0  0  0  0  0  0  0  0  0  0
   17.5969    3.6790    5.4776 C   0  0  0  0  0  0  0  0  0  0  0  0
   18.5368   -3.1122   -0.5916 H   0  0  0  0  0  0  0  0  0  0  0  0
   17.4582   -1.9774    1.3085 H   0  0  0  0  0  0  0  0  0  0  0  0
   21.1322   -5.1912    2.1153 H   0  0  0  0  0  0  0  0  0  0  0  0
   20.0660   -4.0957    4.0111 H   0  0  0  0  0  0  0  0  0  0  0  0
   17.1652   -1.7796    3.5566 H   0  0  0  0  0  0  0  0  0  0  0  0
   16.7678   -0.8893    5.2663 H   0  0  0  0  0  0  0  0  0  0  0  0
   18.9810   -2.3158    7.8753 H   0  0  0  0  0  0  0  0  0  0  0  0
   19.2253   -1.2821   10.0915 H   0  0  0  0  0  0  0  0  0  0  0  0
   18.0848    0.8967   10.5454 H   0  0  0  0  0  0  0  0  0  0  0  0
   14.4442    0.8136    8.4432 H   0  0  0  0  0  0  0  0  0  0  0  0
   12.7586    2.4562    9.1241 H   0  0  0  0  0  0  0  0  0  0  0  0
   12.5685    4.6010    7.9262 H   0  0  0  0  0  0  0  0  0  0  0  0
   14.0433    5.1126    6.0786 H   0  0  0  0  0  0  0  0  0  0  0  0
   16.5381    2.8024    2.9693 H   0  0  0  0  0  0  0  0  0  0  0  0
   16.4360    1.5562    4.1756 H   0  0  0  0  0  0  0  0  0  0  0  0
   14.9675    2.3432    3.6126 H   0  0  0  0  0  0  0  0  0  0  0  0
   16.4767    5.1548    3.4689 H   0  0  0  0  0  0  0  0  0  0  0  0
   14.7903    4.9680    3.9001 H   0  0  0  0  0  0  0  0  0  0  0  0
   15.9068    5.7872    4.9952 H   0  0  0  0  0  0  0  0  0  0  0  0
   18.2750    3.9525    4.6677 H   0  0  0  0  0  0  0  0  0  0  0  0
   17.7091    4.4317    6.2593 H   0  0  0  0  0  0  0  0  0  0  0  0
   17.9647    2.7370    5.8813 H   0  0  0  0  0  0  0  0  0  0  0  0
  1  2  1  0
  2  3  1  0
  2  4  1  0
  2  5  1  0
  5  6  1  0
  6  7  2  0
  6  9  1  0
  7  8  1  0
  7 33  1  0
  8 11  2  0
  8 34  1  0
  9 10  2  0
  9 35  1  0
 10 11  1  0
 10 36  1  0
 11 12  1  0
 12 13  1  0
 12 37  1  0
 13 14  2  0
 13 15  1  0
 15 16  1  0
 15 38  1  0
 16 17  2  0
 16 21  1  0
 17 18  1  0
 17 39  1  0
 18 19  2  0
 18 40  1  0
 19 20  1  0
 19 41  1  0
 20 21  2  0
 21 22  1  0
 22 23  1  0
 23 24  2  0
 23 28  1  0
 24 25  1  0
 24 42  1  0
 25 26  2  0
 25 43  1  0
 26 27  1  0
 26 44  1  0
 27 28  2  0
 27 45  1  0
 28 29  1  0
 29 30  1  0
 29 31  1  0
 29 32  1  0
 30 46  1  0
 30 47  1  0
 30 48  1  0
 31 49  1  0
 31 50  1  0
 31 51  1  0
 32 52  1  0
 32 53  1  0
 32 54  1  0
M  END
>  <r_exp_dg>  (20) 
-11.2166

>  <AmberAM1BCCCache>  (20) 
gASVXQQAAAAAAABdlCiMFm51bXB5Ll9jb3JlLm11bHRpYXJyYXmUjAZzY2FsYXKUk5SMBW51bXB5lIwFZHR5cGWUk5SMAmY4lImIh5RSlChLA4wBPJROTk5K/////0r/////SwB0lGJDCCJK2AYLjQTAlIaUUpRoA2gJQwiWJH2A+kYjQJSGlFKUaANoCUMIIkrYBguNBMCUhpRSlGgDaAlDCCJK2AYLjQTAlIaUUpRoA2gJQwg+pwHt/zMRwJSGlFKUaANoCUMI62fjKuRI4z+UhpRSlGgDaAlDCCs1RSQc0fG/lIaUUpRoA2gJQwhdEg4eU2r9v5SGlFKUaANoCUMIKzVFJBzR8b+UhpRSlGgDaAlDCF0SDh5Tav2/lIaUUpRoA2gJQwjwUHb/Z2nuP5SGlFKUaANoCUMIAX3MUXLzFcCUhpRSlGgDaAlDCLQOFp+kGyJAlIaUUpRoA2gJQwhdUywOfbccwJSGlFKUaANoCUMI4B8612GPFMCUhpRSlGgDaAlDCOaeOTA3aeu/lIaUUpRoA2gJQwiPFBuXJNjsv5SGlFKUaANoCUMIi4lj7frhB8CUhpRSlGgDaAlDCMywCEIXGxNAlIaUUpRoA2gJQwifCcjIzCUgwJSGlFKUaANoCUMIDnt4RCpgG0CUhpRSlGgDaAlDCOsHN6nacxLAlIaUUpRoA2gJQwhVhXA0XLb1P5SGlFKUaANoCUMIHmWUGW0d+r+UhpRSlGgDaAlDCFHBIsT3b/a/lIaUUpRoA2gJQwhlemajKkT5v5SGlFKUaANoCUMIZ64SZhYx97+UhpRSlGgDaAlDCKd2xRUT2eS/lIaUUpRoA2gJQwhHTsPGcCCgv5SGlFKUaANoCUMIg0gk7SbW77+UhpRSlGgDaAlDCINIJO0m1u+/lIaUUpRoA2gJQwiDSCTtJtbvv5SGlFKUaANoCUMI+CdKDSaF/T+UhpRSlGgDaAlDCCYcgDLZ/f0/lIaUUpRoA2gJQwj4J0oNJoX9P5SGlFKUaANoCUMIJhyAMtn9/T+UhpRSlGgDaAlDCBGcJdnTwA1AlIaUUpRoA2gJQwjijZnSqlEOQJSGlFKUaANoCUMIJ+HZWZXJAECUhpRSlGgDaAlDCPpBoO6be/w/lIaUUpRoA2gJQwjybyhrJvnVP5SGlFKUaANoCUMIzWfAql75+j+UhpRSlGgDaAlDCOiIXA9pp/k/lIaUUpRoA2gJQwhdkmS+2Ub5P5SGlFKUaANoCUMI6IhcD2mn+T+UhpRSlGgDaAlDCMUOzVhqi9w/lIaUUpRoA2gJQwjFDs1YaovcP5SGlFKUaANoCUMIxQ7NWGqL3D+UhpRSlGgDaAlDCMUOzVhqi9w/lIaUUpRoA2gJQwjFDs1YaovcP5SGlFKUaANoCUMIxQ7NWGqL3D+UhpRSlGgDaAlDCMUOzVhqi9w/lIaUUpRoA2gJQwjFDs1YaovcP5SGlFKUaANoCUMIxQ7NWGqL3D+UhpRSlGUu

>  <experimental dG reference units>  (20) 
kcal/mol

>  <experimental dG reference field>  (20) 
r_exp_dg

>  <kJ/mol experimental dG>  (20) 
-46.9302544

>  <kcal/mol experimental dG>  (20) 
-11.2166

$$$$
