39charg
     RDKit          3D

 47 50  0  0  1  0  0  0  0  0999 V2000
    8.2482   43.6956   49.2023 C   0  0  0  0  0  0  0  0  0  0  0  0
    5.0583   45.5087   51.0336 C   0  0  0  0  0  0  0  0  0  0  0  0
    4.1116   45.9335   52.1616 C   0  0  0  0  0  0  0  0  0  0  0  0
    2.6434   45.6420   51.7806 C   0  0  0  0  0  0  0  0  0  0  0  0
    1.6780   46.0379   52.9087 C   0  0  0  0  0  0  0  0  0  0  0  0
    2.0402   45.3876   54.2573 C   0  0  0  0  0  0  0  0  0  0  0  0
    3.5105   45.6415   54.6400 C   0  0  0  0  0  0  0  0  0  0  0  0
    4.4816   45.2590   53.5069 C   0  0  0  0  0  0  0  0  0  0  0  0
    4.9844   41.1199   46.7951 C   0  0  0  0  0  0  0  0  0  0  0  0
    4.1198   40.9427   47.8801 C   0  0  0  0  0  0  0  0  0  0  0  0
    4.5771   41.2249   49.1748 C   0  0  0  0  0  0  0  0  0  0  0  0
    5.8639   41.7118   49.3699 C   0  0  0  0  0  0  0  0  0  0  0  0
    1.7524   40.8858   48.4972 O   0  0  0  0  0  0  0  0  0  0  0  0
    7.1909   44.3284   49.7713 N   0  0  0  0  0  0  0  0  0  0  0  0
    7.4326   45.3385   50.6407 C   0  0  0  0  0  0  0  0  0  0  0  0
    6.3926   45.9263   51.3326 O   0  0  0  0  0  0  0  0  0  0  0  0
    8.7413   45.7530   50.8985 C   0  0  0  0  0  0  0  0  0  0  0  0
    9.2672   46.7071   51.7272 N   0  0  0  0  0  0  0  0  0  0  0  0
   10.9139   45.6162   50.6358 N   0  0  0  0  0  0  0  0  0  0  0  0
    9.7489   45.0443   50.1983 C   0  0  0  0  0  0  0  0  0  0  0  0
    9.5629   44.0281   49.3423 N   0  0  0  0  0  0  0  0  0  0  0  0
    7.9563   42.5599   48.4378 N   0  0  0  0  0  0  0  0  0  0  0  0
    6.7029   41.9452   48.2745 C   0  0  0  0  0  0  0  0  0  0  0  0
    6.2717   41.6063   46.9969 C   0  0  0  0  0  0  0  0  0  0  0  0
    2.7167   40.4439   47.6397 C   0  0  0  0  0  0  0  0  0  0  0  0
   10.5572   46.5818   51.5517 C   0  0  0  0  0  0  0  0  0  0  0  0
    2.4488   39.7138   46.6874 O   0  0  0  0  0  0  0  0  0  0  0  0
    4.7587   45.9621   50.0876 H   0  0  0  0  0  0  0  0  0  0  0  0
    4.9777   44.4256   50.9181 H   0  0  0  0  0  0  0  0  0  0  0  0
    4.2087   47.0134   52.2849 H   0  0  0  0  0  0  0  0  0  0  0  0
    2.5172   44.5845   51.5481 H   0  0  0  0  0  0  0  0  0  0  0  0
    2.3808   46.1826   50.8709 H   0  0  0  0  0  0  0  0  0  0  0  0
    0.6503   45.7982   52.6336 H   0  0  0  0  0  0  0  0  0  0  0  0
    1.7272   47.1171   53.0213 H   0  0  0  0  0  0  0  0  0  0  0  0
    1.8534   44.3157   54.2127 H   0  0  0  0  0  0  0  0  0  0  0  0
    1.3851   45.7707   55.0404 H   0  0  0  0  0  0  0  0  0  0  0  0
    3.7619   45.0876   55.5447 H   0  0  0  0  0  0  0  0  0  0  0  0
    3.6400   46.6958   54.8872 H   0  0  0  0  0  0  0  0  0  0  0  0
    5.4975   45.5277   53.7996 H   0  0  0  0  0  0  0  0  0  0  0  0
    4.4806   44.1743   53.3883 H   0  0  0  0  0  0  0  0  0  0  0  0
    4.6664   40.8919   45.7874 H   0  0  0  0  0  0  0  0  0  0  0  0
    3.9453   41.0807   50.0384 H   0  0  0  0  0  0  0  0  0  0  0  0
    6.1914   41.9391   50.3733 H   0  0  0  0  0  0  0  0  0  0  0  0
   11.8641   45.3956   50.3650 H   0  0  0  0  0  0  0  0  0  0  0  0
    8.6939   42.2476   47.8221 H   0  0  0  0  0  0  0  0  0  0  0  0
    6.9164   41.7431   46.1492 H   0  0  0  0  0  0  0  0  0  0  0  0
   11.3211   47.1430   52.0673 H   0  0  0  0  0  0  0  0  0  0  0  0
  1 14  2  0
  1 21  1  0
  1 22  1  0
  2  3  1  0
  2 16  1  0
  2 28  1  0
  2 29  1  0
  3  4  1  0
  3  8  1  0
  3 30  1  0
  4  5  1  0
  4 31  1  0
  4 32  1  0
  5  6  1  0
  5 33  1  0
  5 34  1  0
  6  7  1  0
  6 35  1  0
  6 36  1  0
  7  8  1  0
  7 37  1  0
  7 38  1  0
  8 39  1  0
  8 40  1  0
  9 10  2  0
  9 24  1  0
  9 41  1  0
 10 11  1  0
 10 25  1  0
 11 12  2  0
 11 42  1  0
 12 23  1  0
 12 43  1  0
 13 25  1  0
 14 15  1  0
 15 16  1  0
 15 17  2  0
 17 18  1  0
 17 20  1  0
 18 26  2  0
 19 20  1  0
 19 26  1  0
 19 44  1  0
 20 21  2  0
 22 23  1  0
 22 45  1  0
 23 24  2  0
 24 46  1  0
 25 27  2  0
 26 47  1  0
M  CHG  1  13  -1
M  END
>  <i_m_Source_File_Index>  (1) 
2

>  <b_m_subgroup_collapsed>  (1) 
0

>  <r_exp_dg>  (1) 
-8.37

>  <s_m_Source_File>  (1) 
cdk2_ligands.sdf

>  <s_m_Source_Path>  (1) 
/lrlhps/users/l045340/Projects/openFE/benchmark/cdk2

>  <s_m_entry_id>  (1) 
2

>  <s_m_entry_name>  (1) 
cdk2_ligands.2

>  <s_m_subgroup_title>  (1) 
imported_structures

>  <s_m_subgroupid>  (1) 
imported_structures

>  <experimental dG reference units>  (1) 
kcal/mol

>  <experimental dG reference field>  (1) 
r_exp_dg

>  <kJ/mol experimental dG>  (1) 
-35.02008

>  <kcal/mol experimental dG>  (1) 
-8.37

>  <AmberAM1BCCCache>  (1) 
gASV2AMAAAAAAABdlCiMFm51bXB5Ll9jb3JlLm11bHRpYXJyYXmUjAZzY2FsYXKUk5SMBW51bXB5lIwFZHR5cGWUk5SMAmY4lImIh5RSlChLA4wBPJROTk5K/////0r/////SwB0lGJDCLAYwy9emiVAlIaUUpRoA2gJQwiTLHYOrsT5P5SGlFKUaANoCUMI1efS0aiY7b+UhpRSlGgDaAlDCP19u0UIseu/lIaUUpRoA2gJQwjmdnXCc/nrv5SGlFKUaANoCUMIcW1tEwNa7L+UhpRSlGgDaAlDCOZ2dcJz+eu/lIaUUpRoA2gJQwj9fbtFCLHrv5SGlFKUaANoCUMIW8Q/axfC87+UhpRSlGgDaAlDCDIhrAZ9Lva/lIaUUpRoA2gJQwhbxD9rF8Lzv5SGlFKUaANoCUMIHuYCWj+f/L+UhpRSlGgDaAlDCHuGKMLghiPAlIaUUpRoA2gJQwgwooYMUa0iwJSGlFKUaANoCUMIo2Qph46NIUCUhpRSlGgDaAlDCH7PwoPtkhTAlIaUUpRoA2gJQwgc7o31Yr0JwJSGlFKUaANoCUMITZEv5GWbGcCUhpRSlGgDaAlDCKnhqhphURLAlIaUUpRoA2gJQwjwBU2GhvwWQJSGlFKUaANoCUMIHV5q0SmQIcCUhpRSlGgDaAlDCGjaj9PoLSDAlIaUUpRoA2gJQwhgPktMvg7qP5SGlFKUaANoCUMIHuYCWj+f/L+UhpRSlGgDaAlDCG937w7dZSVAlIaUUpRoA2gJQwg7mCNALiwSQJSGlFKUaANoCUMIe4YowuCGI8CUhpRSlGgDaAlDCL2rvIDmvOc/lIaUUpRoA2gJQwi9q7yA5rznP5SGlFKUaANoCUMISbwKs+sT5z+UhpRSlGgDaAlDCOm+qSQw3uE/lIaUUpRoA2gJQwjpvqkkMN7hP5SGlFKUaANoCUMI4k0EVA9w2z+UhpRSlGgDaAlDCOJNBFQPcNs/lIaUUpRoA2gJQwhBd8dRnMnZP5SGlFKUaANoCUMIQXfHUZzJ2T+UhpRSlGgDaAlDCOJNBFQPcNs/lIaUUpRoA2gJQwjiTQRUD3DbP5SGlFKUaANoCUMI6b6pJDDe4T+UhpRSlGgDaAlDCOm+qSQw3uE/lIaUUpRoA2gJQwhob4zInTr9P5SGlFKUaANoCUMIaG+MyJ06/T+UhpRSlGgDaAlDCIsfgoQwNPY/lIaUUpRoA2gJQwjpS1u9KCUOQJSGlFKUaANoCUMI4oRak8x5FECUhpRSlGgDaAlDCIsfgoQwNPY/lIaUUpRoA2gJQwhD2bcX1vbnP5SGlFKUZS4=

$$$$
34
     RDKit          3D

 49 52  0  0  1  0  0  0  0  0999 V2000
    8.2482   43.6956   49.2023 C   0  0  0  0  0  0  0  0  0  0  0  0
    5.0583   45.5087   51.0336 C   0  0  0  0  0  0  0  0  0  0  0  0
    4.1116   45.9335   52.1616 C   0  0  0  0  0  0  0  0  0  0  0  0
    2.6434   45.6420   51.7806 C   0  0  0  0  0  0  0  0  0  0  0  0
    1.6780   46.0379   52.9087 C   0  0  0  0  0  0  0  0  0  0  0  0
    2.0402   45.3876   54.2573 C   0  0  0  0  0  0  0  0  0  0  0  0
    3.5105   45.6415   54.6400 C   0  0  0  0  0  0  0  0  0  0  0  0
    4.4816   45.2590   53.5069 C   0  0  0  0  0  0  0  0  0  0  0  0
    4.9844   41.1199   46.7951 C   0  0  0  0  0  0  0  0  0  0  0  0
    4.1198   40.9427   47.8801 C   0  0  0  0  0  0  0  0  0  0  0  0
    4.5771   41.2249   49.1748 C   0  0  0  0  0  0  0  0  0  0  0  0
    5.8639   41.7118   49.3699 C   0  0  0  0  0  0  0  0  0  0  0  0
    1.7724   40.8766   48.4795 N   0  0  0  0  0  0  0  0  0  0  0  0
    7.1909   44.3284   49.7713 N   0  0  0  0  0  0  0  0  0  0  0  0
    7.4326   45.3385   50.6407 C   0  0  0  0  0  0  0  0  0  0  0  0
    6.3926   45.9263   51.3326 O   0  0  0  0  0  0  0  0  0  0  0  0
    8.7413   45.7530   50.8985 C   0  0  0  0  0  0  0  0  0  0  0  0
    9.2672   46.7071   51.7272 N   0  0  0  0  0  0  0  0  0  0  0  0
   10.9139   45.6162   50.6358 N   0  0  0  0  0  0  0  0  0  0  0  0
    9.7489   45.0443   50.1983 C   0  0  0  0  0  0  0  0  0  0  0  0
    9.5629   44.0281   49.3423 N   0  0  0  0  0  0  0  0  0  0  0  0
    7.9563   42.5599   48.4378 N   0  0  0  0  0  0  0  0  0  0  0  0
    6.7029   41.9452   48.2745 C   0  0  0  0  0  0  0  0  0  0  0  0
    6.2717   41.6063   46.9969 C   0  0  0  0  0  0  0  0  0  0  0  0
    2.7167   40.4439   47.6397 C   0  0  0  0  0  0  0  0  0  0  0  0
   10.5572   46.5818   51.5517 C   0  0  0  0  0  0  0  0  0  0  0  0
    2.4488   39.7138   46.6874 O   0  0  0  0  0  0  0  0  0  0  0  0
    4.7587   45.9621   50.0876 H   0  0  0  0  0  0  0  0  0  0  0  0
    4.9777   44.4256   50.9181 H   0  0  0  0  0  0  0  0  0  0  0  0
    4.2087   47.0134   52.2849 H   0  0  0  0  0  0  0  0  0  0  0  0
    2.5172   44.5845   51.5481 H   0  0  0  0  0  0  0  0  0  0  0  0
    2.3808   46.1826   50.8709 H   0  0  0  0  0  0  0  0  0  0  0  0
    0.6503   45.7982   52.6336 H   0  0  0  0  0  0  0  0  0  0  0  0
    1.7272   47.1171   53.0213 H   0  0  0  0  0  0  0  0  0  0  0  0
    1.8534   44.3157   54.2127 H   0  0  0  0  0  0  0  0  0  0  0  0
    1.3851   45.7707   55.0404 H   0  0  0  0  0  0  0  0  0  0  0  0
    3.7619   45.0876   55.5447 H   0  0  0  0  0  0  0  0  0  0  0  0
    3.6400   46.6958   54.8872 H   0  0  0  0  0  0  0  0  0  0  0  0
    5.4975   45.5277   53.7996 H   0  0  0  0  0  0  0  0  0  0  0  0
    4.4806   44.1743   53.3883 H   0  0  0  0  0  0  0  0  0  0  0  0
    4.6664   40.8919   45.7874 H   0  0  0  0  0  0  0  0  0  0  0  0
    3.9453   41.0807   50.0384 H   0  0  0  0  0  0  0  0  0  0  0  0
    6.1914   41.9391   50.3733 H   0  0  0  0  0  0  0  0  0  0  0  0
    0.8092   40.6155   48.3278 H   0  0  0  0  0  0  0  0  0  0  0  0
    2.0264   41.3648   49.3257 H   0  0  0  0  0  0  0  0  0  0  0  0
   11.8641   45.3956   50.3650 H   0  0  0  0  0  0  0  0  0  0  0  0
    8.6939   42.2476   47.8221 H   0  0  0  0  0  0  0  0  0  0  0  0
    6.9164   41.7431   46.1492 H   0  0  0  0  0  0  0  0  0  0  0  0
   11.3211   47.1430   52.0673 H   0  0  0  0  0  0  0  0  0  0  0  0
  1 14  2  0
  1 21  1  0
  1 22  1  0
  2  3  1  0
  2 16  1  0
  2 28  1  0
  2 29  1  0
  3  4  1  0
  3  8  1  0
  3 30  1  0
  4  5  1  0
  4 31  1  0
  4 32  1  0
  5  6  1  0
  5 33  1  0
  5 34  1  0
  6  7  1  0
  6 35  1  0
  6 36  1  0
  7  8  1  0
  7 37  1  0
  7 38  1  0
  8 39  1  0
  8 40  1  0
  9 10  2  0
  9 24  1  0
  9 41  1  0
 10 11  1  0
 10 25  1  0
 11 12  2  0
 11 42  1  0
 12 23  1  0
 12 43  1  0
 13 25  1  0
 13 44  1  0
 13 45  1  0
 14 15  1  0
 15 16  1  0
 15 17  2  0
 17 18  1  0
 17 20  1  0
 18 26  2  0
 19 20  1  0
 19 26  1  0
 19 46  1  0
 20 21  2  0
 22 23  1  0
 22 47  1  0
 23 24  2  0
 24 48  1  0
 25 27  2  0
 26 49  1  0
M  END
>  <i_m_Source_File_Index>  (2) 
3

>  <b_m_subgroup_collapsed>  (2) 
0

>  <r_exp_dg>  (2) 
-9.88

>  <s_m_Source_File>  (2) 
cdk2_ligands.sdf

>  <s_m_Source_Path>  (2) 
/lrlhps/users/l045340/Projects/openFE/benchmark/cdk2

>  <s_m_entry_id>  (2) 
3

>  <s_m_entry_name>  (2) 
cdk2_ligands.3

>  <s_m_subgroup_title>  (2) 
imported_structures

>  <s_m_subgroupid>  (2) 
imported_structures

>  <experimental dG reference units>  (2) 
kcal/mol

>  <experimental dG reference field>  (2) 
r_exp_dg

>  <kJ/mol experimental dG>  (2) 
-41.337920000000004

>  <kcal/mol experimental dG>  (2) 
-9.88

>  <AmberAM1BCCCache>  (2) 
gASV/gMAAAAAAABdlCiMFm51bXB5Ll9jb3JlLm11bHRpYXJyYXmUjAZzY2FsYXKUk5SMBW51bXB5lIwFZHR5cGWUk5SMAmY4lImIh5RSlChLA4wBPJROTk5K/////0r/////SwB0lGJDCNheND/fcCVAlIaUUpRoA2gJQwj8e44Ej0/5P5SGlFKUaANoCUMIrv6wtrDD8L+UhpRSlGgDaAlDCDWL2q773uu/lIaUUpRoA2gJQwiJ4UyFIoPsv5SGlFKUaANoCUMIlzxDswH37L+UhpRSlGgDaAlDCInhTIUig+y/lIaUUpRoA2gJQwg1i9qu+97rv5SGlFKUaANoCUMIo5c54eBq7b+UhpRSlGgDaAlDCHv2ZOn1V/2/lIaUUpRoA2gJQwijlznh4Grtv5SGlFKUaANoCUMInan6wT9T/L+UhpRSlGgDaAlDCDpxbxYj0x/AlIaUUpRoA2gJQwj2eaIDR2kiwJSGlFKUaANoCUMImi26XQ3KIUCUhpRSlGgDaAlDCHiyWnZvCBTAlIaUUpRoA2gJQwg4Pftdi0UHwJSGlFKUaANoCUMIMP4sIXouGcCUhpRSlGgDaAlDCJbL9SCiAhLAlIaUUpRoA2gJQwhmcGt5EHsWQJSGlFKUaANoCUMI/jqeAw/cIcCUhpRSlGgDaAlDCOnJrYQEwSDAlIaUUpRoA2gJQwhIaqhV3hn+P5SGlFKUaANoCUMInan6wT9T/L+UhpRSlGgDaAlDCGqiVruStx9AlIaUUpRoA2gJQwiY4aXOrfwSQJSGlFKUaANoCUMIKaN/jN3PHMCUhpRSlGgDaAlDCC2PeZQeQew/lIaUUpRoA2gJQwgtj3mUHkHsP5SGlFKUaANoCUMIkhPqJkj55j+UhpRSlGgDaAlDCHv8WJbBxOE/lIaUUpRoA2gJQwh7/FiWwcThP5SGlFKUaANoCUMICCew6IWd3T+UhpRSlGgDaAlDCAgnsOiFnd0/lIaUUpRoA2gJQwiuPkSeH6zcP5SGlFKUaANoCUMIrj5Enh+s3D+UhpRSlGgDaAlDCAgnsOiFnd0/lIaUUpRoA2gJQwgIJ7DohZ3dP5SGlFKUaANoCUMIe/xYlsHE4T+UhpRSlGgDaAlDCHv8WJbBxOE/lIaUUpRoA2gJQwigDh3QZqH7P5SGlFKUaANoCUMIoA4d0Gah+z+UhpRSlGgDaAlDCM4CU/UZGvw/lIaUUpRoA2gJQwg2AQM0y18NQJSGlFKUaANoCUMINgEDNMtfDUCUhpRSlGgDaAlDCLGCrnUFVg5AlIaUUpRoA2gJQwgMlaof5QQVQJSGlFKUaANoCUMIzgJT9Rka/D+UhpRSlGgDaAlDCHhT8vYFmOw/lIaUUpRlLg==

$$$$
25
     RDKit          3D

 46 49  0  0  1  0  0  0  0  0999 V2000
    8.2482   43.6956   49.2023 C   0  0  0  0  0  0  0  0  0  0  0  0
    5.0583   45.5087   51.0336 C   0  0  0  0  0  0  0  0  0  0  0  0
    4.1116   45.9335   52.1616 C   0  0  0  0  0  0  0  0  0  0  0  0
    2.6434   45.6420   51.7806 C   0  0  0  0  0  0  0  0  0  0  0  0
    1.6780   46.0379   52.9087 C   0  0  0  0  0  0  0  0  0  0  0  0
    2.0402   45.3876   54.2573 C   0  0  0  0  0  0  0  0  0  0  0  0
    3.5105   45.6415   54.6400 C   0  0  0  0  0  0  0  0  0  0  0  0
    4.4816   45.2590   53.5069 C   0  0  0  0  0  0  0  0  0  0  0  0
    4.9844   41.1199   46.7951 C   0  0  0  0  0  0  0  0  0  0  0  0
    4.1198   40.9427   47.8801 C   0  0  0  0  0  0  0  0  0  0  0  0
    4.5771   41.2249   49.1748 C   0  0  0  0  0  0  0  0  0  0  0  0
    5.8639   41.7118   49.3699 C   0  0  0  0  0  0  0  0  0  0  0  0
    7.1909   44.3284   49.7713 N   0  0  0  0  0  0  0  0  0  0  0  0
    7.4326   45.3385   50.6407 C   0  0  0  0  0  0  0  0  0  0  0  0
    6.3926   45.9263   51.3326 O   0  0  0  0  0  0  0  0  0  0  0  0
    8.7413   45.7530   50.8985 C   0  0  0  0  0  0  0  0  0  0  0  0
    9.2672   46.7071   51.7272 N   0  0  0  0  0  0  0  0  0  0  0  0
   10.9139   45.6162   50.6358 N   0  0  0  0  0  0  0  0  0  0  0  0
    9.7489   45.0443   50.1983 C   0  0  0  0  0  0  0  0  0  0  0  0
    9.5629   44.0281   49.3423 N   0  0  0  0  0  0  0  0  0  0  0  0
    7.9563   42.5599   48.4378 N   0  0  0  0  0  0  0  0  0  0  0  0
    6.7029   41.9452   48.2745 C   0  0  0  0  0  0  0  0  0  0  0  0
    6.2717   41.6063   46.9969 C   0  0  0  0  0  0  0  0  0  0  0  0
    2.8510   40.4917   47.6627 O   0  0  0  0  0  0  0  0  0  0  0  0
   10.5572   46.5818   51.5517 C   0  0  0  0  0  0  0  0  0  0  0  0
    4.7587   45.9621   50.0876 H   0  0  0  0  0  0  0  0  0  0  0  0
    4.9777   44.4256   50.9181 H   0  0  0  0  0  0  0  0  0  0  0  0
    4.2087   47.0134   52.2849 H   0  0  0  0  0  0  0  0  0  0  0  0
    2.5172   44.5845   51.5481 H   0  0  0  0  0  0  0  0  0  0  0  0
    2.3808   46.1826   50.8709 H   0  0  0  0  0  0  0  0  0  0  0  0
    0.6503   45.7982   52.6336 H   0  0  0  0  0  0  0  0  0  0  0  0
    1.7272   47.1171   53.0213 H   0  0  0  0  0  0  0  0  0  0  0  0
    1.8534   44.3157   54.2127 H   0  0  0  0  0  0  0  0  0  0  0  0
    1.3851   45.7707   55.0404 H   0  0  0  0  0  0  0  0  0  0  0  0
    3.7619   45.0876   55.5447 H   0  0  0  0  0  0  0  0  0  0  0  0
    3.6400   46.6958   54.8872 H   0  0  0  0  0  0  0  0  0  0  0  0
    5.4975   45.5277   53.7996 H   0  0  0  0  0  0  0  0  0  0  0  0
    4.4806   44.1743   53.3883 H   0  0  0  0  0  0  0  0  0  0  0  0
    4.6664   40.8919   45.7874 H   0  0  0  0  0  0  0  0  0  0  0  0
    3.9453   41.0807   50.0384 H   0  0  0  0  0  0  0  0  0  0  0  0
    6.1914   41.9391   50.3733 H   0  0  0  0  0  0  0  0  0  0  0  0
   11.8641   45.3956   50.3650 H   0  0  0  0  0  0  0  0  0  0  0  0
    8.6939   42.2476   47.8221 H   0  0  0  0  0  0  0  0  0  0  0  0
    6.9164   41.7431   46.1492 H   0  0  0  0  0  0  0  0  0  0  0  0
   11.3211   47.1430   52.0673 H   0  0  0  0  0  0  0  0  0  0  0  0
    2.3872   40.4236   48.5005 H   0  0  0  0  0  0  0  0  0  0  0  0
  1 13  2  0
  1 20  1  0
  1 21  1  0
  2  3  1  0
  2 15  1  0
  2 26  1  0
  2 27  1  0
  3  4  1  0
  3  8  1  0
  3 28  1  0
  4  5  1  0
  4 29  1  0
  4 30  1  0
  5  6  1  0
  5 31  1  0
  5 32  1  0
  6  7  1  0
  6 33  1  0
  6 34  1  0
  7  8  1  0
  7 35  1  0
  7 36  1  0
  8 37  1  0
  8 38  1  0
  9 10  2  0
  9 23  1  0
  9 39  1  0
 10 11  1  0
 10 24  1  0
 11 12  2  0
 11 40  1  0
 12 22  1  0
 12 41  1  0
 13 14  1  0
 14 15  1  0
 14 16  2  0
 16 17  1  0
 16 19  1  0
 17 25  2  0
 18 19  1  0
 18 25  1  0
 18 42  1  0
 19 20  2  0
 21 22  1  0
 21 43  1  0
 22 23  2  0
 23 44  1  0
 24 46  1  0
 25 45  1  0
M  END
>  <i_m_Source_File_Index>  (3) 
4

>  <b_m_subgroup_collapsed>  (3) 
0

>  <r_exp_dg>  (3) 
-9.83

>  <s_m_Source_File>  (3) 
cdk2_ligands.sdf

>  <s_m_Source_Path>  (3) 
/lrlhps/users/l045340/Projects/openFE/benchmark/cdk2

>  <s_m_entry_id>  (3) 
4

>  <s_m_entry_name>  (3) 
cdk2_ligands.4

>  <s_m_subgroup_title>  (3) 
imported_structures

>  <s_m_subgroupid>  (3) 
imported_structures

>  <experimental dG reference units>  (3) 
kcal/mol

>  <experimental dG reference field>  (3) 
r_exp_dg

>  <kJ/mol experimental dG>  (3) 
-41.12872

>  <kcal/mol experimental dG>  (3) 
-9.83

>  <AmberAM1BCCCache>  (3) 
gASVxQMAAAAAAABdlCiMFm51bXB5Ll9jb3JlLm11bHRpYXJyYXmUjAZzY2FsYXKUk5SMBW51bXB5lIwFZHR5cGWUk5SMAmY4lImIh5RSlChLA4wBPJROTk5K/////0r/////SwB0lGJDCOO6/idnWyVAlIaUUpRoA2gJQwiYFSbhXGv5P5SGlFKUaANoCUMIdWGzpNBG67+UhpRSlGgDaAlDCOavSeluO+y/lIaUUpRoA2gJQwgNs6EjPxvsv5SGlFKUaANoCUMIkJ5lqHXs7L+UhpRSlGgDaAlDCA2zoSM/G+y/lIaUUpRoA2gJQwjmr0npbjvsv5SGlFKUaANoCUMIYUelRoyvAMCUhpRSlGgDaAlDCHGX05BOSPY/lIaUUpRoA2gJQwhhR6VGjK8AwJSGlFKUaANoCUMIFhTAsgzY8b+UhpRSlGgDaAlDCBJraCEgeyLAlIaUUpRoA2gJQwi3uiIfT8ohQJSGlFKUaANoCUMIYWZVDD76E8CUhpRSlGgDaAlDCAsstjEP5wfAlIaUUpRoA2gJQwhg4i+BDj4ZwJSGlFKUaANoCUMINK7MY04iEsCUhpRSlGgDaAlDCHuH5MHDmxZAlIaUUpRoA2gJQwhz+ZkrRughwJSGlFKUaANoCUMIs/hxZNhnIMCUhpRSlGgDaAlDCGQsklV9V/A/lIaUUpRoA2gJQwgWFMCyDNjxv5SGlFKUaANoCUMI3xDC3U1jF8CUhpRSlGgDaAlDCF//GZP72BJAlIaUUpRoA2gJQwjKVKQvsazoP5SGlFKUaANoCUMIylSkL7Gs6D+UhpRSlGgDaAlDCEudjG1myOU/lIaUUpRoA2gJQwgi91jsFDPiP5SGlFKUaANoCUMIIvdY7BQz4j+UhpRSlGgDaAlDCIejdvNuK90/lIaUUpRoA2gJQwiHo3bzbivdP5SGlFKUaANoCUMIQqj6Sif73D+UhpRSlGgDaAlDCEKo+kon+9w/lIaUUpRoA2gJQwiHo3bzbivdP5SGlFKUaANoCUMIh6N2824r3T+UhpRSlGgDaAlDCCL3WOwUM+I/lIaUUpRoA2gJQwgi91jsFDPiP5SGlFKUaANoCUMIvIXt4Z0S+z+UhpRSlGgDaAlDCLyF7eGdEvs/lIaUUpRoA2gJQwhWePfpaJv7P5SGlFKUaANoCUMI47vU0sQmDkCUhpRSlGgDaAlDCPK37ULlrBRAlIaUUpRoA2gJQwhWePfpaJv7P5SGlFKUaANoCUMIPDiLawPb6z+UhpRSlGgDaAlDCMGb1uzuwRNAlIaUUpRlLg==

$$$$
