Example 6
     RDKit          3D

 44 46  0  0  0  0  0  0  0  0999 V2000
   24.5541   41.4086    2.9391 N   0  0  0  0  0  0  0  0  0  0  0  0
   24.8162   42.5900    2.0939 C   0  0  0  0  0  0  0  0  0  0  0  0
   25.8942   43.4882    2.7380 C   0  0  0  0  0  0  0  0  0  0  0  0
   27.1958   42.7090    3.0142 C   0  0  0  0  0  0  0  0  0  0  0  0
   26.8854   41.4093    3.7822 C   0  0  0  0  0  0  0  0  0  0  0  0
   25.7779   40.5804    3.0987 C   0  0  0  0  0  0  0  0  0  0  0  0
   19.7564   40.5728    5.6014 C   0  0  0  0  0  0  0  0  0  0  0  0
   19.4547   40.9011    6.9415 C   0  0  0  0  0  0  0  0  0  0  0  0
   18.1494   40.6979    7.4298 C   0  0  0  0  0  0  0  0  0  0  0  0
   17.1817   40.1496    6.5987 C   0  0  0  0  0  0  0  0  0  0  0  0
   17.5342   39.8095    5.2908 C   0  0  0  0  0  0  0  0  0  0  0  0
   18.7834   40.0332    4.7935 C   0  0  0  0  0  0  0  0  0  0  0  0
   21.0555   40.7706    4.9811 C   0  0  0  0  0  0  0  0  0  0  0  0
   21.1033   41.7740    4.0767 C   0  0  0  0  0  0  0  0  0  0  0  0
   22.2526   42.0186    3.4385 N   0  0  0  0  0  0  0  0  0  0  0  0
   23.4020   41.2202    3.6592 C   0  0  0  0  0  0  0  0  0  0  0  0
   23.3305   40.2002    4.5650 N   0  0  0  0  0  0  0  0  0  0  0  0
   22.1801   39.9475    5.2152 C   0  0  0  0  0  0  0  0  0  0  0  0
   17.6819   41.1426    9.0368 Cl  0  0  0  0  0  0  0  0  0  0  0  0
   20.6649   41.6022    7.9487 Cl  0  0  0  0  0  0  0  0  0  0  0  0
   22.1235   38.8853    6.1019 N   0  0  0  0  0  0  0  0  0  0  0  0
   28.1023   43.5979    3.8918 N   0  0  0  0  0  0  0  0  0  0  0  0
   27.9589   42.4195    1.7111 C   0  0  0  0  0  0  0  0  0  0  0  0
   25.1155   42.2545    1.1021 H   0  0  0  0  0  0  0  0  0  0  0  0
   23.9209   43.1944    1.9448 H   0  0  0  0  0  0  0  0  0  0  0  0
   25.4809   43.9293    3.6447 H   0  0  0  0  0  0  0  0  0  0  0  0
   26.0877   44.3393    2.0844 H   0  0  0  0  0  0  0  0  0  0  0  0
   26.5544   41.6337    4.7911 H   0  0  0  0  0  0  0  0  0  0  0  0
   27.7848   40.8008    3.9031 H   0  0  0  0  0  0  0  0  0  0  0  0
   26.1017   40.2324    2.1198 H   0  0  0  0  0  0  0  0  0  0  0  0
   25.5813   39.6721    3.6761 H   0  0  0  0  0  0  0  0  0  0  0  0
   16.1633   39.9801    6.9291 H   0  0  0  0  0  0  0  0  0  0  0  0
   16.7880   39.2082    4.4520 O   0  0  0  0  0  0  0  0  0  0  0  0
   18.9577   39.7583    3.7588 H   0  0  0  0  0  0  0  0  0  0  0  0
   22.9880   38.3677    6.2895 H   0  0  0  0  0  0  0  0  0  0  0  0
   21.2815   38.6983    6.6223 H   0  0  0  0  0  0  0  0  0  0  0  0
   28.9810   43.1378    4.0530 H   0  0  0  0  0  0  0  0  0  0  0  0
   27.3552   41.8253    1.0198 H   0  0  0  0  0  0  0  0  0  0  0  0
   28.8716   41.8497    1.8984 H   0  0  0  0  0  0  0  0  0  0  0  0
   28.2274   43.3362    1.1878 H   0  0  0  0  0  0  0  0  0  0  0  0
   28.2606   44.4661    3.3879 H   0  0  0  0  0  0  0  0  0  0  0  0
   15.9304   38.9893    4.9002 H   0  0  0  0  0  0  0  0  0  0  0  0
   27.6643   43.8132    4.7674 H   0  0  0  0  0  0  0  0  0  0  0  0
   20.2212   42.3647    3.8785 H   0  0  0  0  0  0  0  0  0  0  0  0
  1  2  1  0
  1  6  1  0
  1 16  1  0
  2  3  1  0
  2 24  1  0
  2 25  1  0
  3  4  1  0
  3 26  1  0
  3 27  1  0
  4  5  1  0
  4 22  1  0
  4 23  1  0
  5  6  1  0
  5 28  1  0
  5 29  1  0
  6 30  1  0
  6 31  1  0
  7  8  2  0
  7 12  1  0
  7 13  1  0
  8  9  1  0
  8 20  1  0
  9 10  2  0
  9 19  1  0
 10 11  1  0
 10 32  1  0
 11 12  2  0
 11 33  1  0
 12 34  1  0
 13 14  2  0
 13 18  1  0
 14 15  1  0
 14 44  1  0
 15 16  2  0
 16 17  1  0
 17 18  2  0
 18 21  1  0
 21 35  1  0
 21 36  1  0
 22 37  1  0
 22 41  1  0
 22 43  1  0
 23 38  1  0
 23 39  1  0
 23 40  1  0
 33 42  1  0
M  CHG  1  22   1
M  END
>  <ID>  (1) 
Example 6

>  <IC50 uM>  (1) 
0.22500000000000001

>  <atom.dprop.PartialCharge>  (1) 
-0.7858248 0.20664938 -0.11385214 0.13795558 -0.11385214 0.20664938 0.07784015 -0.027993947 0.0725286 -0.19283824 0.15669993 -0.17562877 -0.39051718 0.50362253 -0.7109016 0.90446776 -0.77197516 0.7409454 -0.06801655 -0.0679379 -0.9341092 -0.85049576 -0.13017222 0.066972196 0.066972196 0.07660596 0.07660596 0.07660596 0.07660596 0.066972196 0.066972196 0.16128847 -0.48278877 0.16316128 0.43327633 0.43327633 0.45174086 0.078846104 0.078846104 0.078846104 0.45174086 0.42253345 0.45174086 0.029936237

>  <experimental dG reference units>  (1) 
uM

>  <experimental dG reference field>  (1) 
IC50 uM

>  <kJ/mol experimental dG>  (1) 
-38.18147958909431

>  <kcal/mol experimental dG>  (1) 
-9.125592636016805

>  <AmberAM1BCCCache>  (1) 
gASVnwMAAAAAAABdlCiMFm51bXB5Ll9jb3JlLm11bHRpYXJyYXmUjAZzY2FsYXKUk5SMBW51bXB5lIwFZHR5cGWUk5SMAmY4lImIh5RSlChLA4wBPJROTk5K/////0r/////SwB0lGJDCAXEW/rWcyHAlIaUUpRoA2gJQwjlDO9Pr+ICQJSGlFKUaANoCUMIQ1wBKTPT9L+UhpRSlGgDaAlDCBZtZ8CLUvw/lIaUUpRoA2gJQwhDXAEpM9P0v5SGlFKUaANoCUMI5QzvT6/iAkCUhpRSlGgDaAlDCPNX1Y+HH8s/lIaUUpRoA2gJQwhJEPhk+NrXv5SGlFKUaANoCUMIz5Gg5gTG5j+UhpRSlGgDaAlDCLukChiu9ALAlIaUUpRoA2gJQwjg5jcnmYz7P5SGlFKUaANoCUMIKmUGs5CY+r+UhpRSlGgDaAlDCKTyHLlEYRHAlIaUUpRoA2gJQwjjMpFBwgEYQJSGlFKUaANoCUMIF1ejFC85IsCUhpRSlGgDaAlDCHZcXzCKEiVAlIaUUpRoA2gJQwghupr85WAjwJSGlFKUaANoCUMIlgtQ30apIUCUhpRSlGgDaAlDCN0C9bWwQ+K/lIaUUpRoA2gJQwjPMkSrAZDqv5SGlFKUaANoCUMI6DJmVh04JsCUhpRSlGgDaAlDCKfa6qKaHyTAlIaUUpRoA2gJQwiqGl63tnv5v5SGlFKUaANoCUMI/HvLNzTF7T+UhpRSlGgDaAlDCPx7yzc0xe0/lIaUUpRoA2gJQwj/r3f6H7LrP5SGlFKUaANoCUMI/693+h+y6z+UhpRSlGgDaAlDCP+vd/ofsus/lIaUUpRoA2gJQwj/r3f6H7LrP5SGlFKUaANoCUMI/HvLNzTF7T+UhpRSlGgDaAlDCPx7yzc0xe0/lIaUUpRoA2gJQwgXAri3P4z+P5SGlFKUaANoCUMIGuoY2lnTFsCUhpRSlGgDaAlDCOjzK7EWHf8/lIaUUpRoA2gJQwjSZKG3fP4UQJSGlFKUaANoCUMI0mSht3z+FECUhpRSlGgDaAlDCJfZx+cmcRVAlIaUUpRoA2gJQwjidIW0nw3uP5SGlFKUaANoCUMI4nSFtJ8N7j+UhpRSlGgDaAlDCOJ0hbSfDe4/lIaUUpRoA2gJQwiX2cfnJnEVQJSGlFKUaANoCUMIWMGe2vRdFECUhpRSlGgDaAlDCJfZx+cmcRVAlIaUUpRoA2gJQwjRm6u6iD/gP5SGlFKUZS4=

$$$$
11
     RDKit          3D

 46 48  0  0  0  0  0  0  0  0999 V2000
   24.5722   41.4017    2.9497 N   0  0  0  0  0  0  0  0  0  0  0  0
   24.8073   42.5904    2.1071 C   0  0  0  0  0  0  0  0  0  0  0  0
   25.8882   43.4955    2.7352 C   0  0  0  0  0  0  0  0  0  0  0  0
   27.1844   42.7081    3.0173 C   0  0  0  0  0  0  0  0  0  0  0  0
   26.8880   41.4066    3.7995 C   0  0  0  0  0  0  0  0  0  0  0  0
   25.7788   40.5760    3.1172 C   0  0  0  0  0  0  0  0  0  0  0  0
   19.6941   40.5278    5.5181 C   0  0  0  0  0  0  0  0  0  0  0  0
   19.4037   40.8004    6.8683 C   0  0  0  0  0  0  0  0  0  0  0  0
   18.1005   40.6055    7.3543 C   0  0  0  0  0  0  0  0  0  0  0  0
   17.1024   40.1270    6.5070 C   0  0  0  0  0  0  0  0  0  0  0  0
   17.3911   39.8460    5.1764 C   0  0  0  0  0  0  0  0  0  0  0  0
   18.6755   40.0507    4.6853 C   0  0  0  0  0  0  0  0  0  0  0  0
   21.0420   40.7304    4.9310 C   0  0  0  0  0  0  0  0  0  0  0  0
   21.0963   41.7469    4.0374 N   0  0  0  0  0  0  0  0  0  0  0  0
   22.2680   41.9826    3.4209 C   0  0  0  0  0  0  0  0  0  0  0  0
   23.3992   41.2013    3.6601 C   0  0  0  0  0  0  0  0  0  0  0  0
   23.3400   40.1644    4.5484 N   0  0  0  0  0  0  0  0  0  0  0  0
   22.1710   39.9440    5.2012 C   0  0  0  0  0  0  0  0  0  0  0  0
   17.6893   40.9440    9.0001 Cl  0  0  0  0  0  0  0  0  0  0  0  0
   20.6364   41.3873    7.9395 Cl  0  0  0  0  0  0  0  0  0  0  0  0
   22.1416   38.8888    6.1136 N   0  0  0  0  0  0  0  0  0  0  0  0
   28.0989   43.5943    3.8660 N   0  0  0  0  0  0  0  0  0  0  0  0
   27.9436   42.4192    1.7238 C   0  0  0  0  0  0  0  0  0  0  0  0
   25.1346   42.2431    1.1260 H   0  0  0  0  0  0  0  0  0  0  0  0
   23.9305   43.1928    1.8932 H   0  0  0  0  0  0  0  0  0  0  0  0
   25.4822   43.9052    3.6621 H   0  0  0  0  0  0  0  0  0  0  0  0
   26.0760   44.3478    2.0795 H   0  0  0  0  0  0  0  0  0  0  0  0
   26.5544   41.6374    4.8131 H   0  0  0  0  0  0  0  0  0  0  0  0
   27.7851   40.7941    3.9052 H   0  0  0  0  0  0  0  0  0  0  0  0
   26.1033   40.2188    2.1391 H   0  0  0  0  0  0  0  0  0  0  0  0
   25.5804   39.6753    3.6998 H   0  0  0  0  0  0  0  0  0  0  0  0
   16.1024   39.9768    6.8873 H   0  0  0  0  0  0  0  0  0  0  0  0
   16.6136   39.4779    4.5216 H   0  0  0  0  0  0  0  0  0  0  0  0
   18.8881   39.8422    3.6459 H   0  0  0  0  0  0  0  0  0  0  0  0
   23.3418   38.1054    6.3920 C   0  0  0  0  0  0  0  0  0  0  0  0
   27.6398   43.8120    4.7398 H   0  0  0  0  0  0  0  0  0  0  0  0
   28.8803   41.8906    1.9092 H   0  0  0  0  0  0  0  0  0  0  0  0
   28.1848   43.3317    1.1760 H   0  0  0  0  0  0  0  0  0  0  0  0
   27.3675   41.7927    1.0417 H   0  0  0  0  0  0  0  0  0  0  0  0
   28.9634   43.1099    4.0623 H   0  0  0  0  0  0  0  0  0  0  0  0
   22.2142   42.7915    2.7136 H   0  0  0  0  0  0  0  0  0  0  0  0
   21.3339   38.7082    6.6920 H   0  0  0  0  0  0  0  0  0  0  0  0
   23.1102   37.3347    7.1272 H   0  0  0  0  0  0  0  0  0  0  0  0
   24.1199   38.7600    6.7847 H   0  0  0  0  0  0  0  0  0  0  0  0
   23.6913   37.6368    5.4721 H   0  0  0  0  0  0  0  0  0  0  0  0
   28.3039   44.4537    3.3768 H   0  0  0  0  0  0  0  0  0  0  0  0
  1  2  1  0
  1  6  1  0
  1 16  1  0
  2  3  1  0
  2 24  1  0
  2 25  1  0
  3  4  1  0
  3 26  1  0
  3 27  1  0
  4  5  1  0
  4 22  1  0
  4 23  1  0
  5  6  1  0
  5 28  1  0
  5 29  1  0
  6 30  1  0
  6 31  1  0
  7  8  2  0
  7 12  1  0
  7 13  1  0
  8  9  1  0
  8 20  1  0
  9 10  2  0
  9 19  1  0
 10 11  1  0
 10 32  1  0
 11 12  2  0
 11 33  1  0
 12 34  1  0
 13 14  2  0
 13 18  1  0
 14 15  1  0
 15 16  2  0
 15 41  1  0
 16 17  1  0
 17 18  2  0
 18 21  1  0
 21 35  1  0
 21 42  1  0
 22 36  1  0
 22 40  1  0
 22 46  1  0
 23 37  1  0
 23 38  1  0
 23 39  1  0
 35 43  1  0
 35 44  1  0
 35 45  1  0
M  CHG  1  22   1
M  END
>  <ID>  (2) 
11

>  <IC50 uM>  (2) 
22

>  <atom.dprop.PartialCharge>  (2) 
-0.76759005 0.18838845 -0.11415003 0.1385625 -0.11415003 0.18838845 -0.09903906 0.026727276 0.029732434 -0.10045096 -0.11456777 -0.10921477 0.2944551 -0.5786999 0.29207948 0.52194965 -0.68929344 0.5507355 -0.065466866 -0.058038875 -0.8019218 -0.8513967 -0.13097706 0.06410016 0.06410016 0.07656938 0.07656938 0.07656938 0.07656938 0.06410016 0.06410016 0.15765384 0.1461132 0.15369716 0.16149487 0.4515669 0.07867217 0.07867217 0.07867217 0.4515669 0.04034847 0.40438747 0.048949223 0.048949223 0.048949223 0.4515669

>  <experimental dG reference units>  (2) 
uM

>  <experimental dG reference field>  (2) 
IC50 uM

>  <kJ/mol experimental dG>  (2) 
-26.750613089379417

>  <kcal/mol experimental dG>  (2) 
-6.393549973561046

>  <AmberAM1BCCCache>  (2) 
gASVxQMAAAAAAABdlCiMFm51bXB5Ll9jb3JlLm11bHRpYXJyYXmUjAZzY2FsYXKUk5SMBW51bXB5lIwFZHR5cGWUk5SMAmY4lImIh5RSlChLA4wBPJROTk5K/////0r/////SwB0lGJDCJ96J/lgJSHAlIaUUpRoA2gJQwhSf+Hi+gsBQJSGlFKUaANoCUMI4uh8N+T587+UhpRSlGgDaAlDCI3nMTVv4/w/lIaUUpRoA2gJQwji6Hw35Pnzv5SGlFKUaANoCUMIUn/h4voLAUCUhpRSlGgDaAlDCMzxgcFBv/m/lIaUUpRoA2gJQwiSWP1CdbHFP5SGlFKUaANoCUMI6wy9yu+1yD+UhpRSlGgDaAlDCDKQSDXhbfO/lIaUUpRoA2gJQwgAThBszBH2v5SGlFKUaANoCUMI2tuIrWZp8L+UhpRSlGgDaAlDCNUQIctplAtAlIaUUpRoA2gJQwiJ/3+l8LsawJSGlFKUaANoCUMI8dAY+6v1BUCUhpRSlGgDaAlDCB0bseORRhhAlIaUUpRoA2gJQwhsEvNqcbohwJSGlFKUaANoCUMI6L4iOQf0G0CUhpRSlGgDaAlDCLrLJwPVxeO/lIaUUpRoA2gJQwj0Kp9jWS/qv5SGlFKUaANoCUMICm0wStC6I8CUhpRSlGgDaAlDCJIJgBOZHyTAlIaUUpRoA2gJQwhJjYPk8av5v5SGlFKUaANoCUMIfs+w92Eh6z+UhpRSlGgDaAlDCH7PsPdhIes/lIaUUpRoA2gJQwjDyiygqVHrP5SGlFKUaANoCUMIw8osoKlR6z+UhpRSlGgDaAlDCMPKLKCpUes/lIaUUpRoA2gJQwjDyiygqVHrP5SGlFKUaANoCUMIfs+w92Eh6z+UhpRSlGgDaAlDCH7PsPdhIes/lIaUUpRoA2gJQwi9ig4zTIz+P5SGlFKUaANoCUMIBro2nn+p/D+UhpRSlGgDaAlDCEu1skbH2fw/lIaUUpRoA2gJQwjpwyRxLmUCQJSGlFKUaANoCUMI1kSm9y51FUCUhpRSlGgDaAlDCB005HMgTu4/lIaUUpRoA2gJQwgdNORzIE7uP5SGlFKUaANoCUMIHTTkcyBO7j+UhpRSlGgDaAlDCNZEpvcudRVAlIaUUpRoA2gJQwj9kuF85zveP5SGlFKUaANoCUMIIIsKI0HUFECUhpRSlGgDaAlDCHP9eRT2G+I/lIaUUpRoA2gJQwhz/XkU9hviP5SGlFKUaANoCUMIc/15FPYb4j+UhpRSlGgDaAlDCNZEpvcudRVAlIaUUpRlLg==

$$$$
Example 1
     RDKit          3D

 43 45  0  0  0  0  0  0  0  0999 V2000
   24.5492   41.4103    2.9581 N   0  0  0  0  0  0  0  0  0  0  0  0
   24.8206   42.5674    2.0917 C   0  0  0  0  0  0  0  0  0  0  0  0
   25.9010   43.4845    2.7073 C   0  0  0  0  0  0  0  0  0  0  0  0
   27.2006   42.7197    3.0160 C   0  0  0  0  0  0  0  0  0  0  0  0
   26.8994   41.4031    3.7428 C   0  0  0  0  0  0  0  0  0  0  0  0
   25.7707   40.5926    3.0746 C   0  0  0  0  0  0  0  0  0  0  0  0
   19.6801   40.5131    5.5639 C   0  0  0  0  0  0  0  0  0  0  0  0
   19.3880   40.8059    6.9100 C   0  0  0  0  0  0  0  0  0  0  0  0
   18.0896   40.6058    7.4051 C   0  0  0  0  0  0  0  0  0  0  0  0
   17.0975   40.0865    6.5706 C   0  0  0  0  0  0  0  0  0  0  0  0
   17.3885   39.7774    5.2446 C   0  0  0  0  0  0  0  0  0  0  0  0
   18.6614   40.0160    4.7431 C   0  0  0  0  0  0  0  0  0  0  0  0
   20.9975   40.7599    4.9628 C   0  0  0  0  0  0  0  0  0  0  0  0
   21.1772   41.8132    4.0533 C   0  0  0  0  0  0  0  0  0  0  0  0
   22.3346   42.0475    3.4126 N   0  0  0  0  0  0  0  0  0  0  0  0
   23.3734   41.2177    3.6872 C   0  0  0  0  0  0  0  0  0  0  0  0
   23.3126   40.1834    4.5784 N   0  0  0  0  0  0  0  0  0  0  0  0
   22.1341   39.9630    5.2013 C   0  0  0  0  0  0  0  0  0  0  0  0
   17.6784   41.0592    9.0215 Cl  0  0  0  0  0  0  0  0  0  0  0  0
   20.6099   41.5010    7.9303 Cl  0  0  0  0  0  0  0  0  0  0  0  0
   22.0817   38.8852    6.0763 N   0  0  0  0  0  0  0  0  0  0  0  0
   28.0958   43.6100    3.9243 N   0  0  0  0  0  0  0  0  0  0  0  0
   27.9161   42.4225    1.7316 C   0  0  0  0  0  0  0  0  0  0  0  0
   25.1389   42.2068    1.1124 H   0  0  0  0  0  0  0  0  0  0  0  0
   23.9138   43.1447    1.9057 H   0  0  0  0  0  0  0  0  0  0  0  0
   25.4862   43.9168    3.6199 H   0  0  0  0  0  0  0  0  0  0  0  0
   26.0951   44.3193    2.0317 H   0  0  0  0  0  0  0  0  0  0  0  0
   26.5951   41.6002    4.7727 H   0  0  0  0  0  0  0  0  0  0  0  0
   27.7967   40.7849    3.8035 H   0  0  0  0  0  0  0  0  0  0  0  0
   26.0720   40.2559    2.0816 H   0  0  0  0  0  0  0  0  0  0  0  0
   25.5735   39.6851    3.6478 H   0  0  0  0  0  0  0  0  0  0  0  0
   16.0997   39.9343    6.9555 H   0  0  0  0  0  0  0  0  0  0  0  0
   16.6171   39.3789    4.6006 H   0  0  0  0  0  0  0  0  0  0  0  0
   18.8614   39.7882    3.7050 H   0  0  0  0  0  0  0  0  0  0  0  0
   28.3051   44.4803    3.4555 H   0  0  0  0  0  0  0  0  0  0  0  0
   27.2841   41.7985    1.0996 H   0  0  0  0  0  0  0  0  0  0  0  0
   28.8462   41.8967    1.9471 H   0  0  0  0  0  0  0  0  0  0  0  0
   28.1378   43.3561    1.2147 H   0  0  0  0  0  0  0  0  0  0  0  0
   27.6121   43.8070    4.7896 H   0  0  0  0  0  0  0  0  0  0  0  0
   21.2610   38.6962    6.6303 H   0  0  0  0  0  0  0  0  0  0  0  0
   20.3576   42.4728    3.8082 H   0  0  0  0  0  0  0  0  0  0  0  0
   22.9058   38.3372    6.2641 H   0  0  0  0  0  0  0  0  0  0  0  0
   28.9615   43.1311    4.1303 H   0  0  0  0  0  0  0  0  0  0  0  0
  1  2  1  0
  1  6  1  0
  1 16  1  0
  2  3  1  0
  2 24  1  0
  2 25  1  0
  3  4  1  0
  3 26  1  0
  3 27  1  0
  4  5  1  0
  4 22  1  0
  4 23  1  0
  5  6  1  0
  5 28  1  0
  5 29  1  0
  6 30  1  0
  6 31  1  0
  7  8  2  0
  7 12  1  0
  7 13  1  0
  8  9  1  0
  8 20  1  0
  9 10  2  0
  9 19  1  0
 10 11  1  0
 10 32  1  0
 11 12  2  0
 11 33  1  0
 12 34  1  0
 13 14  2  0
 13 18  1  0
 14 15  1  0
 14 41  1  0
 15 16  2  0
 16 17  1  0
 17 18  2  0
 18 21  1  0
 21 40  1  0
 21 42  1  0
 22 35  1  0
 22 39  1  0
 22 43  1  0
 23 36  1  0
 23 37  1  0
 23 38  1  0
M  CHG  1  22   1
M  END
>  <ID>  (3) 
Example 1

>  <IC50 uM>  (3) 
0.25800000000000001

>  <atom.dprop.PartialCharge>  (3) 
-0.7859855 0.20648871 -0.11401282 0.13779491 -0.11401282 0.20648871 0.027704978 0.0039748363 0.030456 -0.10819092 -0.111697644 -0.12114239 -0.37122107 0.49477857 -0.71379685 0.9043072 -0.7730869 0.7373863 -0.06797351 -0.06754653 -0.93430066 -0.85065645 -0.13033292 0.066811524 0.066811524 0.07644528 0.07644528 0.07644528 0.07644528 0.066811524 0.066811524 0.15700786 0.14601988 0.14916894 0.45158017 0.07868543 0.07868543 0.07868543 0.45158017 0.43311566 0.032324284 0.43311566 0.45158017

>  <experimental dG reference units>  (3) 
uM

>  <experimental dG reference field>  (3) 
IC50 uM

>  <kJ/mol experimental dG>  (3) 
-37.84010442634624

>  <kcal/mol experimental dG>  (3) 
-9.044002013945084

>  <AmberAM1BCCCache>  (3) 
gASVjAMAAAAAAABdlCiMFm51bXB5Ll9jb3JlLm11bHRpYXJyYXmUjAZzY2FsYXKUk5SMBW51bXB5lIwFZHR5cGWUk5SMAmY4lImIh5RSlChLA4wBPJROTk5K/////0r/////SwB0lGJDCArc6whReSHAlIaUUpRoA2gJQwhCqQvU/PACQJSGlFKUaANoCUMIKiEG9bvO9L+UhpRSlGgDaAlDCC6oYvQCV/w/lIaUUpRoA2gJQwgqIQb1u870v5SGlFKUaANoCUMIQqkL1PzwAkCUhpRSlGgDaAlDCMgxi+PWEc6/lIaUUpRoA2gJQwgxnsfhto65P5SGlFKUaANoCUMI0FSiF8Ddyz+UhpRSlGgDaAlDCBzGD8fcWvS/lIaUUpRoA2gJQwgDpXNi0qz1v5SGlFKUaANoCUMIp7wHGGy79L+UhpRSlGgDaAlDCJcookPfLxHAlIaUUpRoA2gJQwgGBFI6vOoXQJSGlFKUaANoCUMIV+1hAsRQIsCUhpRSlGgDaAlDCNnD3hYZEyVAlIaUUpRoA2gJQwhV0wshTlojwJSGlFKUaANoCUMIv/Sg5rqXIUCUhpRSlGgDaAlDCNdm3pH/vOO/lIaUUpRoA2gJQwiGz12h9MXpv5SGlFKUaANoCUMIhcvmb443JsCUhpRSlGgDaAlDCERza7wLHyTAlIaUUpRoA2gJQwiS32KDP3f5v5SGlFKUaANoCUMIL/LBnyLO7T+UhpRSlGgDaAlDCC/ywZ8izu0/lIaUUpRoA2gJQwiPKDCO6qLrP5SGlFKUaANoCUMIjygwjuqi6z+UhpRSlGgDaAlDCI8oMI7qous/lIaUUpRoA2gJQwiPKDCO6qLrP5SGlFKUaANoCUMIL/LBnyLO7T+UhpRSlGgDaAlDCC/ywZ8izu0/lIaUUpRoA2gJQwgvPbPrtpD+P5SGlFKUaANoCUMIMnFfrqJ9/D+UhpRSlGgDaAlDCNaI82M8jPs/lIaUUpRoA2gJQwheqMa0RHIVQJSGlFKUaANoCUMIFut7HI4W7j+UhpRSlGgDaAlDCBbrexyOFu4/lIaUUpRoA2gJQwgW63scjhbuP5SGlFKUaANoCUMIXqjGtERyFUCUhpRSlGgDaAlDCMg0gZqI8xRAlIaUUpRoA2gJQwjaSWQBsQ7fP5SGlFKUaANoCUMIyDSBmojzFECUhpRSlGgDaAlDCF6oxrREchVAlIaUUpRlLg==

$$$$
SHP099-1/Example 7
     RDKit          3D

 43 45  0  0  0  0  0  0  0  0999 V2000
   24.5722   41.4017    2.9497 N   0  0  0  0  0  0  0  0  0  0  0  0
   24.8073   42.5904    2.1071 C   0  0  0  0  0  0  0  0  0  0  0  0
   25.8882   43.4955    2.7352 C   0  0  0  0  0  0  0  0  0  0  0  0
   27.1844   42.7081    3.0173 C   0  0  0  0  0  0  0  0  0  0  0  0
   26.8880   41.4066    3.7995 C   0  0  0  0  0  0  0  0  0  0  0  0
   25.7788   40.5760    3.1172 C   0  0  0  0  0  0  0  0  0  0  0  0
   19.6941   40.5278    5.5181 C   0  0  0  0  0  0  0  0  0  0  0  0
   19.4037   40.8004    6.8683 C   0  0  0  0  0  0  0  0  0  0  0  0
   18.1005   40.6055    7.3543 C   0  0  0  0  0  0  0  0  0  0  0  0
   17.1024   40.1270    6.5070 C   0  0  0  0  0  0  0  0  0  0  0  0
   17.3911   39.8460    5.1764 C   0  0  0  0  0  0  0  0  0  0  0  0
   18.6755   40.0507    4.6853 C   0  0  0  0  0  0  0  0  0  0  0  0
   21.0420   40.7304    4.9310 C   0  0  0  0  0  0  0  0  0  0  0  0
   21.0963   41.7469    4.0374 N   0  0  0  0  0  0  0  0  0  0  0  0
   22.2680   41.9826    3.4209 C   0  0  0  0  0  0  0  0  0  0  0  0
   23.3992   41.2013    3.6601 C   0  0  0  0  0  0  0  0  0  0  0  0
   23.3400   40.1644    4.5484 N   0  0  0  0  0  0  0  0  0  0  0  0
   22.1710   39.9440    5.2012 C   0  0  0  0  0  0  0  0  0  0  0  0
   17.6893   40.9440    9.0001 Cl  0  0  0  0  0  0  0  0  0  0  0  0
   20.6364   41.3873    7.9395 Cl  0  0  0  0  0  0  0  0  0  0  0  0
   22.1416   38.8888    6.1136 N   0  0  0  0  0  0  0  0  0  0  0  0
   28.0989   43.5943    3.8660 N   0  0  0  0  0  0  0  0  0  0  0  0
   27.9436   42.4192    1.7238 C   0  0  0  0  0  0  0  0  0  0  0  0
   25.0503   42.2737    1.0942 H   0  0  0  0  0  0  0  0  0  0  0  0
   23.9119   43.1848    1.9547 H   0  0  0  0  0  0  0  0  0  0  0  0
   25.4859   43.9463    3.6444 H   0  0  0  0  0  0  0  0  0  0  0  0
   26.0860   44.3382    2.0668 H   0  0  0  0  0  0  0  0  0  0  0  0
   26.5729   41.6227    4.8160 H   0  0  0  0  0  0  0  0  0  0  0  0
   27.7863   40.7975    3.9041 H   0  0  0  0  0  0  0  0  0  0  0  0
   26.0871   40.2123    2.1375 H   0  0  0  0  0  0  0  0  0  0  0  0
   25.5582   39.6711    3.6882 H   0  0  0  0  0  0  0  0  0  0  0  0
   16.0966   39.9833    6.8773 H   0  0  0  0  0  0  0  0  0  0  0  0
   16.6181   39.4786    4.5197 H   0  0  0  0  0  0  0  0  0  0  0  0
   18.8774   39.8300    3.6455 H   0  0  0  0  0  0  0  0  0  0  0  0
   22.2396   42.8343    2.7649 H   0  0  0  0  0  0  0  0  0  0  0  0
   21.2965   38.6913    6.6248 H   0  0  0  0  0  0  0  0  0  0  0  0
   22.9864   38.3512    6.2928 H   0  0  0  0  0  0  0  0  0  0  0  0
   28.9778   43.1202    4.0164 H   0  0  0  0  0  0  0  0  0  0  0  0
   28.2718   44.4626    3.3564 H   0  0  0  0  0  0  0  0  0  0  0  0
   27.3240   41.8322    1.0495 H   0  0  0  0  0  0  0  0  0  0  0  0
   28.8549   41.8535    1.9210 H   0  0  0  0  0  0  0  0  0  0  0  0
   28.2173   43.3396    1.2082 H   0  0  0  0  0  0  0  0  0  0  0  0
   27.6680   43.8147    4.7509 H   0  0  0  0  0  0  0  0  0  0  0  0
  1  2  1  0
  1  6  1  0
  1 16  1  0
  2  3  1  0
  2 24  1  0
  2 25  1  0
  3  4  1  0
  3 26  1  0
  3 27  1  0
  4  5  1  0
  4 22  1  0
  4 23  1  0
  5  6  1  0
  5 28  1  0
  5 29  1  0
  6 30  1  0
  6 31  1  0
  7  8  2  0
  7 12  1  0
  7 13  1  0
  8  9  1  0
  8 20  1  0
  9 10  2  0
  9 19  1  0
 10 11  1  0
 10 32  1  0
 11 12  2  0
 11 33  1  0
 12 34  1  0
 13 14  2  0
 13 18  1  0
 14 15  1  0
 15 16  2  0
 15 35  1  0
 16 17  1  0
 17 18  2  0
 18 21  1  0
 21 36  1  0
 21 37  1  0
 22 38  1  0
 22 39  1  0
 22 43  1  0
 23 40  1  0
 23 41  1  0
 23 42  1  0
M  CHG  1  22   1
M  END
>  <ID>  (4) 
SHP099-1/Example 7

>  <IC50 uM>  (4) 
0.070999999999999994

>  <atom.dprop.PartialCharge>  (4) 
-0.76776683 0.18734314 -0.11432204 0.13839051 -0.11432204 0.18734314 -0.085819595 0.017262287 0.028004037 -0.10062295 -0.11620514 -0.11541319 0.24324077 -0.5741814 0.2794517 0.5345304 -0.7089471 0.6021488 -0.065638885 -0.06092691 -0.9282253 -0.8515687 -0.13114907 0.063928165 0.063928165 0.076397374 0.076397374 0.076397374 0.076397374 0.063928165 0.063928165 0.15748182 0.1459412 0.15289885 0.038352445 0.43586597 0.43586597 0.45139492 0.45139492 0.07850017 0.07850017 0.07850017 0.45139492

>  <experimental dG reference units>  (4) 
uM

>  <experimental dG reference field>  (4) 
IC50 uM

>  <kJ/mol experimental dG>  (4) 
-41.05851795566239

>  <kcal/mol experimental dG>  (4) 
-9.81322130871472

>  <AmberAM1BCCCache>  (4) 
gASVjAMAAAAAAABdlCiMFm51bXB5Ll9jb3JlLm11bHRpYXJyYXmUjAZzY2FsYXKUk5SMBW51bXB5lIwFZHR5cGWUk5SMAmY4lImIh5RSlChLA4wBPJROTk5K/////0r/////SwB0lGJDCGqPjlB1JSHAlIaUUpRoA2gJQwj0KmRvuxcBQJSGlFKUaANoCUMIQI+18ob687+UhpRSlGgDaAlDCC9B+XnM4vw/lIaUUpRoA2gJQwhAj7Xyhvrzv5SGlFKUaANoCUMI9Cpkb7sXAUCUhpRSlGgDaAlDCOScPtScj/m/lIaUUpRoA2gJQwh7S1glIirEP5SGlFKUaANoCUMI/9n38NmwyD+UhpRSlGgDaAlDCJA2gfCDbvO/lIaUUpRoA2gJQwhe9EgnbxL2v5SGlFKUaANoCUMIOILBaAlq8L+UhpRSlGgDaAlDCGDCCMXQYwtAlIaUUpRoA2gJQwh+KxCA9aMawJSGlFKUaANoCUMIZXu6cX4NBkCUhpRSlGgDaAlDCL9vERSEWBhAlIaUUpRoA2gJQwhDpKeLstghwJSGlFKUaANoCUMI85KSXgIMHECUhpRSlGgDaAlDCOkhoSiLZuO/lIaUUpRoA2gJQwgkgRiJD9Dpv5SGlFKUaANoCUMIH/23ls31JcCUhpRSlGgDaAlDCF4e52qtHyTAlIaUUpRoA2gJQwinM7yflKz5v5SGlFKUaANoCUMIfYfD2NTv6j+UhpRSlGgDaAlDCH2Hw9jU7+o/lIaUUpRoA2gJQwire/n9h2jrP5SGlFKUaANoCUMIq3v5/Ydo6z+UhpRSlGgDaAlDCKt7+f2HaOs/lIaUUpRoA2gJQwire/n9h2jrP5SGlFKUaANoCUMIfYfD2NTv6j+UhpRSlGgDaAlDCH2Hw9jU7+o/lIaUUpRoA2gJQwhg5NV3qYv+P5SGlFKUaANoCUMIqBP+4tyo/D+UhpRSlGgDaAlDCKgT/uLcqPw/lIaUUpRoA2gJQwie5u4xe/reP5SGlFKUaANoCUMI2uaw1sedFECUhpRSlGgDaAlDCNrmsNbHnRRAlIaUUpRoA2gJQwg+G9hIBnUVQJSGlFKUaANoCUMIPhvYSAZ1FUCUhpRSlGgDaAlDCGLncv3aTO4/lIaUUpRoA2gJQwhi53L92kzuP5SGlFKUaANoCUMIYudy/dpM7j+UhpRSlGgDaAlDCD4b2EgGdRVAlIaUUpRlLg==

$$$$
Example 22
     RDKit          3D

 43 45  0  0  0  0  0  0  0  0999 V2000
   24.5395   41.6049    3.1578 N   0  0  0  0  0  0  0  0  0  0  0  0
   24.8999   42.8662    2.5072 C   0  0  0  0  0  0  0  0  0  0  0  0
   26.2796   43.3664    2.9523 C   0  0  0  0  0  0  0  0  0  0  0  0
   27.3815   42.3279    2.6866 C   0  0  0  0  0  0  0  0  0  0  0  0
   26.9458   40.9995    3.3439 C   0  0  0  0  0  0  0  0  0  0  0  0
   25.5393   40.5572    2.8667 C   0  0  0  0  0  0  0  0  0  0  0  0
   19.6658   40.5877    5.7494 C   0  0  0  0  0  0  0  0  0  0  0  0
   19.5101   40.8644    7.1230 C   0  0  0  0  0  0  0  0  0  0  0  0
   18.3019   40.5656    7.7663 C   0  0  0  0  0  0  0  0  0  0  0  0
   17.2448   40.0200    7.0430 C   0  0  0  0  0  0  0  0  0  0  0  0
   17.3911   39.7426    5.6865 C   0  0  0  0  0  0  0  0  0  0  0  0
   18.5948   40.0214    5.0464 C   0  0  0  0  0  0  0  0  0  0  0  0
   20.9506   40.8311    5.0393 C   0  0  0  0  0  0  0  0  0  0  0  0
   20.9222   41.7408    4.0321 N   0  0  0  0  0  0  0  0  0  0  0  0
   22.0724   42.0023    3.3571 C   0  0  0  0  0  0  0  0  0  0  0  0
   23.2821   41.3525    3.6978 C   0  0  0  0  0  0  0  0  0  0  0  0
   23.2822   40.4119    4.6800 N   0  0  0  0  0  0  0  0  0  0  0  0
   22.1374   40.1598    5.3456 C   0  0  0  0  0  0  0  0  0  0  0  0
   18.0811   40.8514    9.4592 Cl  0  0  0  0  0  0  0  0  0  0  0  0
   20.7877   41.6202    8.0217 Cl  0  0  0  0  0  0  0  0  0  0  0  0
   22.2064   39.2134    6.3526 N   0  0  0  0  0  0  0  0  0  0  0  0
   28.6518   42.8205    3.3925 N   0  0  0  0  0  0  0  0  0  0  0  0
   27.7192   42.1830    1.1873 C   0  0  0  0  0  0  0  0  0  0  0  0
   24.8060   42.7849    1.4224 H   0  0  0  0  0  0  0  0  0  0  0  0
   24.2071   43.6203    2.8514 H   0  0  0  0  0  0  0  0  0  0  0  0
   26.2187   43.6200    4.0124 H   0  0  0  0  0  0  0  0  0  0  0  0
   26.4809   44.3100    2.4460 H   0  0  0  0  0  0  0  0  0  0  0  0
   26.9083   41.0885    4.4322 H   0  0  0  0  0  0  0  0  0  0  0  0
   27.6786   40.2175    3.1547 H   0  0  0  0  0  0  0  0  0  0  0  0
   25.5294   40.3513    1.7952 H   0  0  0  0  0  0  0  0  0  0  0  0
   25.2850   39.6205    3.3614 H   0  0  0  0  0  0  0  0  0  0  0  0
   16.3102   39.7963    7.5376 H   0  0  0  0  0  0  0  0  0  0  0  0
   18.6982   39.7803    3.9951 H   0  0  0  0  0  0  0  0  0  0  0  0
   21.8404   43.2207    1.9002 Br  0  0  0  0  0  0  0  0  0  0  0  0
   23.0751   38.7102    6.5111 H   0  0  0  0  0  0  0  0  0  0  0  0
   21.3652   38.9553    6.8422 H   0  0  0  0  0  0  0  0  0  0  0  0
   29.4272   42.2022    3.1879 H   0  0  0  0  0  0  0  0  0  0  0  0
   26.8613   41.8500    0.6054 H   0  0  0  0  0  0  0  0  0  0  0  0
   28.5187   41.4571    1.0264 H   0  0  0  0  0  0  0  0  0  0  0  0
   28.0402   43.1320    0.7525 H   0  0  0  0  0  0  0  0  0  0  0  0
   28.8750   43.7542    3.0739 H   0  0  0  0  0  0  0  0  0  0  0  0
   16.5761   39.2981    5.1323 H   0  0  0  0  0  0  0  0  0  0  0  0
   28.5166   42.8522    4.3941 H   0  0  0  0  0  0  0  0  0  0  0  0
  1  2  1  0
  1  6  1  0
  1 16  1  0
  2  3  1  0
  2 24  1  0
  2 25  1  0
  3  4  1  0
  3 26  1  0
  3 27  1  0
  4  5  1  0
  4 22  1  0
  4 23  1  0
  5  6  1  0
  5 28  1  0
  5 29  1  0
  6 30  1  0
  6 31  1  0
  7  8  2  0
  7 12  1  0
  7 13  1  0
  8  9  1  0
  8 20  1  0
  9 10  2  0
  9 19  1  0
 10 11  1  0
 10 32  1  0
 11 12  2  0
 11 42  1  0
 12 33  1  0
 13 14  2  0
 13 18  1  0
 14 15  1  0
 15 16  2  0
 15 34  1  0
 16 17  1  0
 17 18  2  0
 18 21  1  0
 21 35  1  0
 21 36  1  0
 22 37  1  0
 22 41  1  0
 22 43  1  0
 23 38  1  0
 23 39  1  0
 23 40  1  0
M  CHG  1  22   1
M  END
>  <ID>  (5) 
Example 22

>  <IC50 uM>  (5) 
0.16900000000000001

>  <atom.dprop.PartialCharge>  (5) 
-0.7576684 0.18115672 -0.111454844 0.139091 -0.111454844 0.18115672 -0.08840686 0.019871235 0.029119056 -0.09883176 -0.1147867 -0.111361116 0.28120205 -0.56495804 0.29602727 0.53290606 -0.7132379 0.6068853 -0.063847475 -0.05895513 -0.9254435 -0.8497772 -0.12935776 0.06639224 0.06639224 0.07793298 0.07793298 0.07793298 0.07793298 0.06639224 0.06639224 0.15927316 0.15467376 -0.094050445 0.44338155 0.44338155 0.4531862 0.08029142 0.08029142 0.08029142 0.4531862 0.14773254 0.4531862

>  <experimental dG reference units>  (5) 
uM

>  <experimental dG reference field>  (5) 
IC50 uM

>  <kJ/mol experimental dG>  (5) 
-38.89536773042812

>  <kcal/mol experimental dG>  (5) 
-9.296215996756242

>  <AmberAM1BCCCache>  (5) 
gASVjAMAAAAAAABdlCiMFm51bXB5Ll9jb3JlLm11bHRpYXJyYXmUjAZzY2FsYXKUk5SMBW51bXB5lIwFZHR5cGWUk5SMAmY4lImIh5RSlChLA4wBPJROTk5K/////0r/////SwB0lGJDCK81+rbBDCHAlIaUUpRoA2gJQwhpJbY+YrMAQJSGlFKUaANoCUMIz7DE8+Td87+UhpRSlGgDaAlDCLgM2hqNwP0/lIaUUpRoA2gJQwjPsMTz5N3zv5SGlFKUaANoCUMIaSW2PmKzAECUhpRSlGgDaAlDCOKTqcF/Jfu/lIaUUpRoA2gJQwgaLM++UNDFP5SGlFKUaANoCUMIcuCORsvUyD+UhpRSlGgDaAlDCPJjWswu2fK/lIaUUpRoA2gJQwiPE5b88A32v5SGlFKUaANoCUMINF81iWip77+UhpRSlGgDaAlDCMYLYQhf9AxAlIaUUpRoA2gJQwgHhZI9ye0ZwJSGlFKUaANoCUMIRbQNHEpcDECUhpRSlGgDaAlDCLePOd4SURlAlIaUUpRoA2gJQwhGh+g1MOEhwJSGlFKUaANoCUMIj72j7e+XHECUhpRSlGgDaAlDCKx8U+DgO+K/lIaUUpRoA2gJQwiIv7IzE8fpv5SGlFKUaANoCUMIPx+QsFgHJsCUhpRSlGgDaAlDCPmBGCAiIiTAlIaUUpRoA2gJQwjXUgl1Fqj5v5SGlFKUaANoCUMIpT8hf2BZ6z+UhpRSlGgDaAlDCKU/IX9gWes/lIaUUpRoA2gJQwjTQAKVTk3rP5SGlFKUaANoCUMI00AClU5N6z+UhpRSlGgDaAlDCNNAApVOTes/lIaUUpRoA2gJQwjTQAKVTk3rP5SGlFKUaANoCUMIpT8hf2BZ6z+UhpRSlGgDaAlDCKU/IX9gWes/lIaUUpRoA2gJQwh1wARLb8D+P5SGlFKUaANoCUMISeYkBzI+/T+UhpRSlGgDaAlDCLg+z2cEYPa/lIaUUpRoA2gJQwgwFka9bfkUQJSGlFKUaANoCUMIMBZGvW35FECUhpRSlGgDaAlDCApUdd4ccBVAlIaUUpRoA2gJQwjBB7aY6RbvP5SGlFKUaANoCUMIwQe2mOkW7z+UhpRSlGgDaAlDCMEHtpjpFu8/lIaUUpRoA2gJQwgKVHXeHHAVQJSGlFKUaANoCUMIA+uoXuoN/T+UhpRSlGgDaAlDCApUdd4ccBVAlIaUUpRlLg==

$$$$
Example 2
     RDKit          3D

 46 48  0  0  0  0  0  0  0  0999 V2000
   24.5912   41.4412    2.9628 N   0  0  0  0  0  0  0  0  0  0  0  0
   25.7880   40.5839    3.0947 C   0  0  0  0  0  0  0  0  0  0  0  0
   26.8827   41.4187    3.7819 C   0  0  0  0  0  0  0  0  0  0  0  0
   27.2037   42.7296    3.0208 C   0  0  0  0  0  0  0  0  0  0  0  0
   25.8914   43.4984    2.7286 C   0  0  0  0  0  0  0  0  0  0  0  0
   24.8146   42.6072    2.0858 C   0  0  0  0  0  0  0  0  0  0  0  0
   19.6867   40.5350    5.5377 C   0  0  0  0  0  0  0  0  0  0  0  0
   19.4006   40.8261    6.8758 C   0  0  0  0  0  0  0  0  0  0  0  0
   18.1051   40.6078    7.3743 C   0  0  0  0  0  0  0  0  0  0  0  0
   17.1087   40.0858    6.5430 C   0  0  0  0  0  0  0  0  0  0  0  0
   17.4034   39.7629    5.2225 C   0  0  0  0  0  0  0  0  0  0  0  0
   18.6796   40.0169    4.7228 C   0  0  0  0  0  0  0  0  0  0  0  0
   21.0271   40.7724    4.9478 C   0  0  0  0  0  0  0  0  0  0  0  0
   21.1661   41.8108    4.0707 C   0  0  0  0  0  0  0  0  0  0  0  0
   22.3393   42.0621    3.4383 N   0  0  0  0  0  0  0  0  0  0  0  0
   23.4048   41.2182    3.6484 C   0  0  0  0  0  0  0  0  0  0  0  0
   23.3416   40.1990    4.5483 N   0  0  0  0  0  0  0  0  0  0  0  0
   22.1565   39.9549    5.1862 C   0  0  0  0  0  0  0  0  0  0  0  0
   17.7286   41.0151    8.7870 C   0  0  0  0  0  0  0  0  0  0  0  0
   20.6167   41.4952    7.9158 Cl  0  0  0  0  0  0  0  0  0  0  0  0
   22.0942   38.8874    6.0945 N   0  0  0  0  0  0  0  0  0  0  0  0
   28.0568   43.6104    3.9321 N   0  0  0  0  0  0  0  0  0  0  0  0
   27.9976   42.4511    1.7261 C   0  0  0  0  0  0  0  0  0  0  0  0
   26.0793   40.2606    2.0975 H   0  0  0  0  0  0  0  0  0  0  0  0
   25.5374   39.6817    3.6751 H   0  0  0  0  0  0  0  0  0  0  0  0
   26.5304   41.6654    4.7796 H   0  0  0  0  0  0  0  0  0  0  0  0
   27.7778   40.8079    3.8955 H   0  0  0  0  0  0  0  0  0  0  0  0
   25.4751   43.9072    3.6483 H   0  0  0  0  0  0  0  0  0  0  0  0
   26.0824   44.3546    2.0811 H   0  0  0  0  0  0  0  0  0  0  0  0
   25.1238   42.2418    1.1104 H   0  0  0  0  0  0  0  0  0  0  0  0
   23.8669   43.1548    1.9503 H   0  0  0  0  0  0  0  0  0  0  0  0
   16.0936   39.9544    6.9083 H   0  0  0  0  0  0  0  0  0  0  0  0
   16.6326   39.3650    4.5781 H   0  0  0  0  0  0  0  0  0  0  0  0
   18.8818   39.7600    3.6910 H   0  0  0  0  0  0  0  0  0  0  0  0
   28.9250   43.1640    4.1754 H   0  0  0  0  0  0  0  0  0  0  0  0
   28.9465   41.9493    1.9173 H   0  0  0  0  0  0  0  0  0  0  0  0
   28.2119   43.3578    1.1601 H   0  0  0  0  0  0  0  0  0  0  0  0
   27.4467   41.7986    1.0477 H   0  0  0  0  0  0  0  0  0  0  0  0
   28.2553   44.4865    3.4578 H   0  0  0  0  0  0  0  0  0  0  0  0
   22.9522   38.3892    6.3063 H   0  0  0  0  0  0  0  0  0  0  0  0
   20.3269   42.4788    3.8471 H   0  0  0  0  0  0  0  0  0  0  0  0
   21.2395   38.7067    6.6030 H   0  0  0  0  0  0  0  0  0  0  0  0
   16.6613   40.8809    8.9516 H   0  0  0  0  0  0  0  0  0  0  0  0
   17.9571   42.0730    8.9359 H   0  0  0  0  0  0  0  0  0  0  0  0
   18.2961   40.4417    9.5254 H   0  0  0  0  0  0  0  0  0  0  0  0
   27.5603   43.8225    4.7842 H   0  0  0  0  0  0  0  0  0  0  0  0
  1  2  1  0
  1  6  1  0
  1 16  1  0
  2  3  1  0
  2 24  1  0
  2 25  1  0
  3  4  1  0
  3 26  1  0
  3 27  1  0
  4  5  1  0
  4 22  1  0
  4 23  1  0
  5  6  1  0
  5 28  1  0
  5 29  1  0
  6 30  1  0
  6 31  1  0
  7  8  2  0
  7 12  1  0
  7 13  1  0
  8  9  1  0
  8 20  1  0
  9 10  2  0
  9 19  1  0
 10 11  1  0
 10 32  1  0
 11 12  2  0
 11 33  1  0
 12 34  1  0
 13 14  2  0
 13 18  1  0
 14 15  1  0
 14 41  1  0
 15 16  2  0
 16 17  1  0
 17 18  2  0
 18 21  1  0
 19 43  1  0
 19 44  1  0
 19 45  1  0
 21 40  1  0
 21 42  1  0
 22 35  1  0
 22 39  1  0
 22 46  1  0
 23 36  1  0
 23 37  1  0
 23 38  1  0
M  CHG  1  22   1
M  END
>  <ID>  (6) 
Example 2

>  <IC50 uM>  (6) 
0.85799999999999998

>  <atom.dprop.PartialCharge>  (6) 
-0.78689337 0.20558125 -0.114920415 0.13688739 -0.114920415 0.20558125 0.026159054 0.0072860867 -0.05410641 -0.11715053 -0.115315005 -0.12532166 -0.3690382 0.4908678 -0.71460426 0.90340006 -0.77368355 0.7342632 -0.05406313 -0.09003842 -0.93510413 -0.85156417 -0.1312405 0.06590395 0.06590395 0.075537704 0.075537704 0.075537704 0.075537704 0.06590395 0.06590395 0.14213115 0.14116034 0.14512552 0.45067257 0.07777786 0.07777786 0.07777786 0.45067257 0.43220806 0.030919038 0.43220806 0.054355785 0.054355785 0.054355785 0.45067257

>  <experimental dG reference units>  (6) 
uM

>  <experimental dG reference field>  (6) 
IC50 uM

>  <kJ/mol experimental dG>  (6) 
-34.84277838960471

>  <kcal/mol experimental dG>  (6) 
-8.32762389808908

>  <AmberAM1BCCCache>  (6) 
gASVxQMAAAAAAABdlCiMFm51bXB5Ll9jb3JlLm11bHRpYXJyYXmUjAZzY2FsYXKUk5SMBW51bXB5lIwFZHR5cGWUk5SMAmY4lImIh5RSlChLA4wBPJROTk5K/////0r/////SwB0lGJDCMfuAcVnbSHAlIaUUpRoA2gJQwhqZflmNtgCQJSGlFKUaANoCUMIla2uJgHQ9L+UhpRSlGgDaAlDCMMbusK9Vfw/lIaUUpRoA2gJQwiVra4mAdD0v5SGlFKUaANoCUMIamX5ZjbYAkCUhpRSlGgDaAlDCEEz50f1FtW/lIaUUpRoA2gJQwgnI38/6XW2P5SGlFKUaANoCUMIOAt4Pc1Z5r+UhpRSlGgDaAlDCCk2oOvPffW/lIaUUpRoA2gJQwiEHgw2Nm/2v5SGlFKUaANoCUMIKTag68999b+UhpRSlGgDaAlDCFZW9VSPwxDAlIaUUpRoA2gJQwil5WtFI7oXQJSGlFKUaANoCUMIfH+Hs+NKIsCUhpRSlGgDaAlDCEA1XKfD9CRAlIaUUpRoA2gJQwjj5EDHdlojwJSGlFKUaANoCUMI92Q9YXeFIUCUhpRSlGgDaAlDCAn96zak6ua/lIaUUpRoA2gJQwiC9GpHzvvxv5SGlFKUaANoCUMIE90bFrc3JsCUhpRSlGgDaAlDCNKEoGI0HyTAlIaUUpRoA2gJQwj9awu1hHj5v5SGlFKUaANoCUMItdsyaHSz7T+UhpRSlGgDaAlDCLXbMmh0s+0/lIaUUpRoA2gJQwhzFGOCGHDrP5SGlFKUaANoCUMIcxRjghhw6z+UhpRSlGgDaAlDCHMUY4IYcOs/lIaUUpRoA2gJQwhzFGOCGHDrP5SGlFKUaANoCUMItdsyaHSz7T+UhpRSlGgDaAlDCLXbMmh0s+0/lIaUUpRoA2gJQwix98baPrv7P5SGlFKUaANoCUMIJQHPia9a+z+UhpRSlGgDaAlDCFUPW5DYyfo/lIaUUpRoA2gJQwhDhVxo83EVQJSGlFKUaANoCUMIP9IquQMU7j+UhpRSlGgDaAlDCD/SKrkDFO4/lIaUUpRoA2gJQwg/0iq5AxTuP5SGlFKUaANoCUMIQ4VcaPNxFUCUhpRSlGgDaAlDCNwS+GMl5xRAlIaUUpRoA2gJQwguGMI6nAnfP5SGlFKUaANoCUMI3BL4YyXnFECUhpRSlGgDaAlDCCJjner7RuU/lIaUUpRoA2gJQwgiY53q+0blP5SGlFKUaANoCUMIImOd6vtG5T+UhpRSlGgDaAlDCEOFXGjzcRVAlIaUUpRlLg==

$$$$
Example 8
     RDKit          3D

 46 48  0  0  0  0  0  0  0  0999 V2000
   24.5594   41.3986    2.9317 N   0  0  0  0  0  0  0  0  0  0  0  0
   25.7611   40.5558    3.0894 C   0  0  0  0  0  0  0  0  0  0  0  0
   26.8712   41.3609    3.7612 C   0  0  0  0  0  0  0  0  0  0  0  0
   27.2234   42.6835    3.0209 C   0  0  0  0  0  0  0  0  0  0  0  0
   25.8987   43.4737    2.7315 C   0  0  0  0  0  0  0  0  0  0  0  0
   24.8053   42.5917    2.0987 C   0  0  0  0  0  0  0  0  0  0  0  0
   19.6880   40.5151    5.5295 C   0  0  0  0  0  0  0  0  0  0  0  0
   19.3970   40.8120    6.8734 C   0  0  0  0  0  0  0  0  0  0  0  0
   18.0969   40.6099    7.3595 C   0  0  0  0  0  0  0  0  0  0  0  0
   17.1044   40.1134    6.5151 C   0  0  0  0  0  0  0  0  0  0  0  0
   17.3955   39.8141    5.1884 C   0  0  0  0  0  0  0  0  0  0  0  0
   18.6784   40.0224    4.6979 C   0  0  0  0  0  0  0  0  0  0  0  0
   21.0311   40.7308    4.9444 C   0  0  0  0  0  0  0  0  0  0  0  0
   21.0849   41.7512    4.0542 N   0  0  0  0  0  0  0  0  0  0  0  0
   22.2536   41.9949    3.4287 C   0  0  0  0  0  0  0  0  0  0  0  0
   23.3876   41.2120    3.6562 C   0  0  0  0  0  0  0  0  0  0  0  0
   23.3295   40.1869    4.5597 N   0  0  0  0  0  0  0  0  0  0  0  0
   22.1602   39.9463    5.2058 C   0  0  0  0  0  0  0  0  0  0  0  0
   17.6785   40.9865    8.9940 Cl  0  0  0  0  0  0  0  0  0  0  0  0
   20.6272   41.4363    7.9277 Cl  0  0  0  0  0  0  0  0  0  0  0  0
   22.1325   38.8841    6.1087 N   0  0  0  0  0  0  0  0  0  0  0  0
   28.1713   43.4659    3.9245 C   0  0  0  0  0  0  0  0  0  0  0  0
   27.9599   42.4153    1.7087 C   0  0  0  0  0  0  0  0  0  0  0  0
   25.5418   39.6858    3.7105 H   0  0  0  0  0  0  0  0  0  0  0  0
   26.1035   40.1645    2.1335 H   0  0  0  0  0  0  0  0  0  0  0  0
   27.7839   40.7770    3.8765 H   0  0  0  0  0  0  0  0  0  0  0  0
   26.5428   41.5457    4.7791 H   0  0  0  0  0  0  0  0  0  0  0  0
   26.0922   44.3272    2.0734 H   0  0  0  0  0  0  0  0  0  0  0  0
   25.4755   43.9389    3.6240 H   0  0  0  0  0  0  0  0  0  0  0  0
   23.9086   43.1927    1.9970 H   0  0  0  0  0  0  0  0  0  0  0  0
   25.0548   42.3035    1.0774 H   0  0  0  0  0  0  0  0  0  0  0  0
   16.0979   39.9774    6.8828 H   0  0  0  0  0  0  0  0  0  0  0  0
   18.8869   39.7946    3.6591 H   0  0  0  0  0  0  0  0  0  0  0  0
   22.2197   42.8194    2.7371 H   0  0  0  0  0  0  0  0  0  0  0  0
   22.9863   38.3608    6.2905 H   0  0  0  0  0  0  0  0  0  0  0  0
   21.2877   38.6934    6.6244 H   0  0  0  0  0  0  0  0  0  0  0  0
   27.3855   41.8135    1.0137 H   0  0  0  0  0  0  0  0  0  0  0  0
   28.8919   41.8903    1.9260 H   0  0  0  0  0  0  0  0  0  0  0  0
   28.2305   43.3531    1.2163 H   0  0  0  0  0  0  0  0  0  0  0  0
   16.6291   39.4353    4.5313 H   0  0  0  0  0  0  0  0  0  0  0  0
   29.2219   43.1499    3.9643 H   0  0  0  0  0  0  0  0  0  0  0  0
   27.6581   43.5644    5.3258 N   0  0  0  0  0  0  0  0  0  0  0  0
   28.1411   44.4660    3.7490 H   0  0  0  0  0  0  0  0  0  0  0  0
   28.3153   44.1625    5.8628 H   0  0  0  0  0  0  0  0  0  0  0  0
   26.7496   43.9973    5.3977 H   0  0  0  0  0  0  0  0  0  0  0  0
   27.6704   42.6729    5.7808 H   0  0  0  0  0  0  0  0  0  0  0  0
  1  2  1  0
  1  6  1  0
  1 16  1  0
  2  3  1  0
  2 24  1  0
  2 25  1  0
  3  4  1  0
  3 26  1  0
  3 27  1  0
  4  5  1  0
  4 22  1  0
  4 23  1  0
  5  6  1  0
  5 28  1  0
  5 29  1  0
  6 30  1  0
  6 31  1  0
  7  8  2  0
  7 12  1  0
  7 13  1  0
  8  9  1  0
  8 20  1  0
  9 10  2  0
  9 19  1  0
 10 11  1  0
 10 32  1  0
 11 12  2  0
 11 40  1  0
 12 33  1  0
 13 14  2  0
 13 18  1  0
 14 15  1  0
 15 16  2  0
 15 34  1  0
 16 17  1  0
 17 18  2  0
 18 21  1  0
 21 35  1  0
 21 36  1  0
 22 41  1  0
 22 42  1  0
 22 43  1  0
 23 37  1  0
 23 38  1  0
 23 39  1  0
 42 44  1  0
 42 45  1  0
 42 46  1  0
M  CHG  1  42   1
M  END
>  <ID>  (7) 
Example 8

>  <IC50 uM>  (7) 
0.075999999999999998

>  <atom.dprop.PartialCharge>  (7) 
-0.7583753 0.20126212 -0.09777204 -0.08124796 -0.09777204 0.20126212 -0.086794235 0.016287692 0.02702933 -0.101597555 -0.11717977 -0.11638777 0.24226616 -0.57515633 0.26645583 0.56213814 -0.74199003 0.6011742 -0.066613615 -0.061901633 -0.92920005 0.10407435 -0.111731306 0.055799544 0.055799544 0.05694966 0.05694966 0.05694966 0.05694966 0.055799544 0.055799544 0.15650713 0.15192418 0.037377812 0.4348913 0.4348913 0.05457958 0.05457958 0.05457958 0.14496651 0.10929336 -0.8390399 0.10929336 0.45564297 0.45564297 0.45564297

>  <experimental dG reference units>  (7) 
uM

>  <experimental dG reference field>  (7) 
IC50 uM

>  <kJ/mol experimental dG>  (7) 
-40.888768570713616

>  <kcal/mol experimental dG>  (7) 
-9.772650232006121

>  <AmberAM1BCCCache>  (7) 
gASVxQMAAAAAAABdlCiMFm51bXB5Ll9jb3JlLm11bHRpYXJyYXmUjAZzY2FsYXKUk5SMBW51bXB5lIwFZHR5cGWUk5SMAmY4lImIh5RSlChLA4wBPJROTk5K/////0r/////SwB0lGJDCPnG9kzqGCHAlIaUUpRoA2gJQwgZT4WpwzEBQJSGlFKUaANoCUMIiFSPWCuh77+UhpRSlGgDaAlDCBoejzfeoem/lIaUUpRoA2gJQwiIVI9YK6Hvv5SGlFKUaANoCUMIGU+FqcMxAUCUhpRSlGgDaAlDCPlwFG3eOfi/lIaUUpRoA2gJQwiVs4qDaEjEP5SGlFKUaANoCUMIGUIqTyDPyD+UhpRSlGgDaAlDCBjgsnVKy/O/lIaUUpRoA2gJQwifov4D7j72v5SGlFKUaANoCUMIwCvz7c/G8L+UhpRSlGgDaAlDCEIFBDgHRApAlIaUUpRoA2gJQwgPlz03Fa8awJSGlFKUaANoCUMILrdvYSA2BUCUhpRSlGgDaAlDCGh1Z0tE5BhAlIaUUpRoA2gJQwjS2w+IJ8whwJSGlFKUaANoCUMIYidlp+IAHECUhpRSlGgDaAlDCIRr/IOngOS/lIaUUpRoA2gJQwge54vxfcjpv5SGlFKUaANoCUMIFrQviEvvJcCUhpRSlGgDaAlDCDc3JuVQE/I/lIaUUpRoA2gJQwhLMjZMUaT2v5SGlFKUaANoCUMIim9SFMja5z+UhpRSlGgDaAlDCIpvUhTI2uc/lIaUUpRoA2gJQwjrvxbkBabkP5SGlFKUaANoCUMI678W5AWm5D+UhpRSlGgDaAlDCOu/FuQFpuQ/lIaUUpRoA2gJQwjrvxbkBabkP5SGlFKUaANoCUMIim9SFMja5z+UhpRSlGgDaAlDCIpvUhTI2uc/lIaUUpRoA2gJQwjZOqTy4i7+P5SGlFKUaANoCUMIZ2VIBl58/D+UhpRSlGgDaAlDCGlTOHtCxtw/lIaUUpRoA2gJQwjWfiZhcm4UQJSGlFKUaANoCUMI1n4mYXJuFECUhpRSlGgDaAlDCKH1TA5Mh+U/lIaUUpRoA2gJQwih9UwOTIflP5SGlFKUaANoCUMIofVMDkyH5T+UhpRSlGgDaAlDCCFqzF0WTPw/lIaUUpRoA2gJQwgRUORJGyv1P5SGlFKUaANoCUMIyt5mC5y4I8CUhpRSlGgDaAlDCBFQ5EkbK/U/lIaUUpRoA2gJQwhT3noHX7oVQJSGlFKUaANoCUMIU956B1+6FUCUhpRSlGgDaAlDCFPeegdfuhVAlIaUUpRlLg==

$$$$
7
     RDKit          3D

 46 48  0  0  0  0  0  0  0  0999 V2000
   24.5492   41.4103    2.9581 N   0  0  0  0  0  0  0  0  0  0  0  0
   25.7707   40.5926    3.0746 C   0  0  0  0  0  0  0  0  0  0  0  0
   26.8994   41.4031    3.7428 C   0  0  0  0  0  0  0  0  0  0  0  0
   27.2006   42.7197    3.0160 C   0  0  0  0  0  0  0  0  0  0  0  0
   25.9010   43.4845    2.7073 C   0  0  0  0  0  0  0  0  0  0  0  0
   24.8206   42.5674    2.0917 C   0  0  0  0  0  0  0  0  0  0  0  0
   19.6801   40.5131    5.5639 C   0  0  0  0  0  0  0  0  0  0  0  0
   19.3880   40.8059    6.9100 C   0  0  0  0  0  0  0  0  0  0  0  0
   18.0896   40.6058    7.4051 C   0  0  0  0  0  0  0  0  0  0  0  0
   17.0975   40.0865    6.5706 C   0  0  0  0  0  0  0  0  0  0  0  0
   17.3885   39.7774    5.2446 C   0  0  0  0  0  0  0  0  0  0  0  0
   18.6614   40.0160    4.7431 C   0  0  0  0  0  0  0  0  0  0  0  0
   20.9975   40.7599    4.9628 C   0  0  0  0  0  0  0  0  0  0  0  0
   21.1772   41.8132    4.0533 C   0  0  0  0  0  0  0  0  0  0  0  0
   22.3346   42.0475    3.4126 N   0  0  0  0  0  0  0  0  0  0  0  0
   23.3734   41.2177    3.6872 C   0  0  0  0  0  0  0  0  0  0  0  0
   23.3126   40.1834    4.5784 N   0  0  0  0  0  0  0  0  0  0  0  0
   22.1341   39.9630    5.2013 C   0  0  0  0  0  0  0  0  0  0  0  0
   17.6784   41.0592    9.0215 Cl  0  0  0  0  0  0  0  0  0  0  0  0
   20.6099   41.5010    7.9303 Cl  0  0  0  0  0  0  0  0  0  0  0  0
   22.0817   38.8852    6.0763 N   0  0  0  0  0  0  0  0  0  0  0  0
   28.0958   43.6100    3.9243 N   0  0  0  0  0  0  0  0  0  0  0  0
   25.5732   39.6852    3.6479 H   0  0  0  0  0  0  0  0  0  0  0  0
   26.0720   40.2556    2.0817 H   0  0  0  0  0  0  0  0  0  0  0  0
   27.7967   40.7849    3.8035 H   0  0  0  0  0  0  0  0  0  0  0  0
   26.5952   41.6002    4.7727 H   0  0  0  0  0  0  0  0  0  0  0  0
   26.0952   44.3191    2.0316 H   0  0  0  0  0  0  0  0  0  0  0  0
   25.4862   43.9170    3.6198 H   0  0  0  0  0  0  0  0  0  0  0  0
   23.9138   43.1446    1.9056 H   0  0  0  0  0  0  0  0  0  0  0  0
   25.1390   42.2068    1.1124 H   0  0  0  0  0  0  0  0  0  0  0  0
   16.0996   39.9345    6.9555 H   0  0  0  0  0  0  0  0  0  0  0  0
   16.6171   39.3786    4.6007 H   0  0  0  0  0  0  0  0  0  0  0  0
   18.8616   39.7878    3.7051 H   0  0  0  0  0  0  0  0  0  0  0  0
   29.3435   42.9152    4.2277 C   0  0  0  0  0  0  0  0  0  0  0  0
   28.4040   44.8645    3.2441 C   0  0  0  0  0  0  0  0  0  0  0  0
   22.9055   38.3365    6.2631 H   0  0  0  0  0  0  0  0  0  0  0  0
   20.3577   42.4731    3.8087 H   0  0  0  0  0  0  0  0  0  0  0  0
   27.7216   42.5033    2.0813 H   0  0  0  0  0  0  0  0  0  0  0  0
   29.8720   42.6956    3.3001 H   0  0  0  0  0  0  0  0  0  0  0  0
   29.1231   41.9839    4.7495 H   0  0  0  0  0  0  0  0  0  0  0  0
   29.9668   43.5472    4.8602 H   0  0  0  0  0  0  0  0  0  0  0  0
   28.9282   44.6532    2.3120 H   0  0  0  0  0  0  0  0  0  0  0  0
   29.0359   45.4796    3.8848 H   0  0  0  0  0  0  0  0  0  0  0  0
   27.4782   45.3974    3.0274 H   0  0  0  0  0  0  0  0  0  0  0  0
   27.6101   43.8110    4.7875 H   0  0  0  0  0  0  0  0  0  0  0  0
   21.2604   38.6952    6.6292 H   0  0  0  0  0  0  0  0  0  0  0  0
  1  2  1  0
  1  6  1  0
  1 16  1  0
  2  3  1  0
  2 23  1  0
  2 24  1  0
  3  4  1  0
  3 25  1  0
  3 26  1  0
  4  5  1  0
  4 22  1  0
  4 38  1  0
  5  6  1  0
  5 27  1  0
  5 28  1  0
  6 29  1  0
  6 30  1  0
  7  8  2  0
  7 12  1  0
  7 13  1  0
  8  9  1  0
  8 20  1  0
  9 10  2  0
  9 19  1  0
 10 11  1  0
 10 31  1  0
 11 12  2  0
 11 32  1  0
 12 33  1  0
 13 14  2  0
 13 18  1  0
 14 15  1  0
 14 37  1  0
 15 16  2  0
 16 17  1  0
 17 18  2  0
 18 21  1  0
 21 36  1  0
 21 46  1  0
 22 34  1  0
 22 35  1  0
 22 45  1  0
 34 39  1  0
 34 40  1  0
 34 41  1  0
 35 42  1  0
 35 43  1  0
 35 44  1  0
M  CHG  1  22   1
M  END
>  <ID>  (8) 
7

>  <IC50 uM>  (8) 
6.5

>  <atom.dprop.PartialCharge>  (8) 
-0.785461 0.2012622 -0.118547596 0.13986973 -0.118547596 0.2012622 0.02766416 0.0039340183 0.030415177 -0.10823174 -0.11173847 -0.1211832 -0.3712619 0.49473777 -0.7139904 0.90437347 -0.77329946 0.73734546 -0.06801434 -0.06758736 -0.9343415 -0.69022006 0.068939984 0.068939984 0.06961565 0.06961565 0.06961565 0.06961565 0.068939984 0.068939984 0.15696704 0.14597905 0.14912811 0.08209284 0.08209284 0.43307483 0.032283463 0.10056919 0.104514666 0.104514666 0.104514666 0.104514666 0.104514666 0.104514666 0.44498685 0.43307483

>  <experimental dG reference units>  (8) 
uM

>  <experimental dG reference field>  (8) 
IC50 uM

>  <kJ/mol experimental dG>  (8) 
-29.791829173977046

>  <kcal/mol experimental dG>  (8) 
-7.120418062614016

>  <AmberAM1BCCCache>  (8) 
gASVxQMAAAAAAABdlCiMFm51bXB5Ll9jb3JlLm11bHRpYXJyYXmUjAZzY2FsYXKUk5SMBW51bXB5lIwFZHR5cGWUk5SMAmY4lImIh5RSlChLA4wBPJROTk5K/////0r/////SwB0lGJDCHzlecoGwiHAlIaUUpRoA2gJQwjYXpQnUUQDQJSGlFKUaANoCUMILKoqc8ag9L+UhpRSlGgDaAlDCApcXZC8DPg/lIaUUpRoA2gJQwgsqipzxqD0v5SGlFKUaANoCUMI2F6UJ1FEA0CUhpRSlGgDaAlDCNt5r9Qqosy/lIaUUpRoA2gJQwi0Wb93lGm5P5SGlFKUaANoCUMIkTKe4i7Lyz+UhpRSlGgDaAlDCGRKsO0uXfS/lIaUUpRoA2gJQwhLKRSJJK/1v5SGlFKUaANoCUMIqkUslnaN9L+UhpRSlGgDaAlDCO9ExnW7YBHAlIaUUpRoA2gJQwjF4ciaOfYXQJSGlFKUaANoCUMIg/tzGzJpIsCUhpRSlGgDaAlDCPOwSKbyKiVAlIaUUpRoA2gJQwikZbGGfUgjwJSGlFKUaANoCUMIzWS9rGeRIUCUhpRSlGgDaAlDCGZvH9+jweO/lIaUUpRoA2gJQwgsxY6Qt4vqv5SGlFKUaANoCUMIDty6tNg3JsCUhpRSlGgDaAlDCJeCFVIlFiDAlIaUUpRoA2gJQwhx9Uoty1DtP5SGlFKUaANoCUMIcfVKLctQ7T+UhpRSlGgDaAlDCKVR2ddVo+k/lIaUUpRoA2gJQwilUdnXVaPpP5SGlFKUaANoCUMIpVHZ11Wj6T+UhpRSlGgDaAlDCKVR2ddVo+k/lIaUUpRoA2gJQwhx9Uoty1DtP5SGlFKUaANoCUMIcfVKLctQ7T+UhpRSlGgDaAlDCKK9lhwdXv4/lIaUUpRoA2gJQwjr7L6HUHv8P5SGlFKUaANoCUMI1f/O5TG6+z+UhpRSlGgDaAlDCFydq4Jgye4/lIaUUpRoA2gJQwhcnauCYMnuP5SGlFKUaANoCUMITZTJG+vsFECUhpRSlGgDaAlDCKZL8sRJRN4/lIaUUpRoA2gJQwgJxwyZCNP1P5SGlFKUaANoCUMIvNaVl+Cv8z+UhpRSlGgDaAlDCLzWlZfgr/M/lIaUUpRoA2gJQwi81pWX4K/zP5SGlFKUaANoCUMIvNaVl+Cv8z+UhpRSlGgDaAlDCLzWlZfgr/M/lIaUUpRoA2gJQwi81pWX4K/zP5SGlFKUaANoCUMIZI5krkQpFUCUhpRSlGgDaAlDCE2UyRvr7BRAlIaUUpRlLg==

$$$$
Example 9
     RDKit          3D

 43 45  0  0  0  0  0  0  0  0999 V2000
   24.5464   41.3949    2.9263 N   0  0  0  0  0  0  0  0  0  0  0  0
   25.7503   40.5506    3.0678 C   0  0  0  0  0  0  0  0  0  0  0  0
   26.8709   41.3386    3.7371 C   0  0  0  0  0  0  0  0  0  0  0  0
   27.1915   42.6963    3.0590 C   0  0  0  0  0  0  0  0  0  0  0  0
   25.8970   43.4712    2.7117 C   0  0  0  0  0  0  0  0  0  0  0  0
   24.8154   42.5795    2.0867 C   0  0  0  0  0  0  0  0  0  0  0  0
   19.6840   40.5121    5.5351 C   0  0  0  0  0  0  0  0  0  0  0  0
   19.3973   40.8099    6.8784 C   0  0  0  0  0  0  0  0  0  0  0  0
   18.0967   40.6108    7.3636 C   0  0  0  0  0  0  0  0  0  0  0  0
   17.1071   40.1041    6.5219 C   0  0  0  0  0  0  0  0  0  0  0  0
   17.3987   39.8007    5.1957 C   0  0  0  0  0  0  0  0  0  0  0  0
   18.6780   40.0165    4.7027 C   0  0  0  0  0  0  0  0  0  0  0  0
   21.0250   40.7291    4.9494 C   0  0  0  0  0  0  0  0  0  0  0  0
   21.0676   41.7591    4.0708 N   0  0  0  0  0  0  0  0  0  0  0  0
   22.2387   42.0000    3.4418 C   0  0  0  0  0  0  0  0  0  0  0  0
   23.3752   41.2250    3.6683 C   0  0  0  0  0  0  0  0  0  0  0  0
   23.3242   40.1927    4.5641 N   0  0  0  0  0  0  0  0  0  0  0  0
   22.1526   39.9513    5.2085 C   0  0  0  0  0  0  0  0  0  0  0  0
   17.6773   41.0128    8.9912 Cl  0  0  0  0  0  0  0  0  0  0  0  0
   20.6231   41.4655    7.9185 Cl  0  0  0  0  0  0  0  0  0  0  0  0
   22.1265   38.8828    6.1041 N   0  0  0  0  0  0  0  0  0  0  0  0
   28.1625   43.5343    3.8924 C   0  0  0  0  0  0  0  0  0  0  0  0
   25.5587   39.6764    3.6932 H   0  0  0  0  0  0  0  0  0  0  0  0
   26.0969   40.1748    2.1061 H   0  0  0  0  0  0  0  0  0  0  0  0
   27.7908   40.7659    3.8607 H   0  0  0  0  0  0  0  0  0  0  0  0
   26.5127   41.4833    4.7526 H   0  0  0  0  0  0  0  0  0  0  0  0
   26.1111   44.3263    2.0672 H   0  0  0  0  0  0  0  0  0  0  0  0
   25.4516   43.9274    3.5976 H   0  0  0  0  0  0  0  0  0  0  0  0
   23.9414   43.2111    1.9643 H   0  0  0  0  0  0  0  0  0  0  0  0
   25.0798   42.2770    1.0727 H   0  0  0  0  0  0  0  0  0  0  0  0
   16.0992   39.9731    6.8871 H   0  0  0  0  0  0  0  0  0  0  0  0
   18.8916   39.7797    3.6691 H   0  0  0  0  0  0  0  0  0  0  0  0
   22.1946   42.8157    2.7405 H   0  0  0  0  0  0  0  0  0  0  0  0
   22.9841   38.3692    6.2894 H   0  0  0  0  0  0  0  0  0  0  0  0
   21.2832   38.6944    6.6229 H   0  0  0  0  0  0  0  0  0  0  0  0
   16.6388   39.4078    4.5399 H   0  0  0  0  0  0  0  0  0  0  0  0
   29.2212   43.2300    3.9016 H   0  0  0  0  0  0  0  0  0  0  0  0
   27.6786   43.5174    5.3054 N   0  0  0  0  0  0  0  0  0  0  0  0
   27.9748   44.5967    3.9512 H   0  0  0  0  0  0  0  0  0  0  0  0
   28.3182   44.0905    5.8559 H   0  0  0  0  0  0  0  0  0  0  0  0
   26.7558   43.9317    5.3912 H   0  0  0  0  0  0  0  0  0  0  0  0
   27.6585   42.4680    2.0998 H   0  0  0  0  0  0  0  0  0  0  0  0
   27.6933   42.6032    5.7389 H   0  0  0  0  0  0  0  0  0  0  0  0
  1  2  1  0
  1  6  1  0
  1 16  1  0
  2  3  1  0
  2 23  1  0
  2 24  1  0
  3  4  1  0
  3 25  1  0
  3 26  1  0
  4  5  1  0
  4 22  1  0
  4 42  1  0
  5  6  1  0
  5 27  1  0
  5 28  1  0
  6 29  1  0
  6 30  1  0
  7  8  2  0
  7 12  1  0
  7 13  1  0
  8  9  1  0
  8 20  1  0
  9 10  2  0
  9 19  1  0
 10 11  1  0
 10 31  1  0
 11 12  2  0
 11 36  1  0
 12 32  1  0
 13 14  2  0
 13 18  1  0
 14 15  1  0
 15 16  2  0
 15 33  1  0
 16 17  1  0
 17 18  2  0
 18 21  1  0
 21 34  1  0
 21 35  1  0
 22 37  1  0
 22 38  1  0
 22 39  1  0
 38 40  1  0
 38 41  1  0
 38 43  1  0
M  CHG  1  38   1
M  END
>  <ID>  (9) 
Example 9

>  <IC50 uM>  (9) 
0.35799999999999998

>  <atom.dprop.PartialCharge>  (9) 
-0.7596169 0.20064218 -0.100881 -0.10306688 -0.100881 0.20064218 -0.08686933 0.016212601 0.026954228 -0.10167265 -0.11725487 -0.116462864 0.24219108 -0.5752315 0.26630902 0.5609527 -0.741844 0.60109913 -0.06668871 -0.061976735 -0.92927516 0.10739225 0.055716537 0.055716537 0.058623523 0.058623523 0.058623523 0.058623523 0.055716537 0.055716537 0.15643205 0.15184908 0.037302718 0.43481624 0.43481624 0.14489141 0.110019624 -0.83588594 0.110019624 0.4563101 0.4563101 0.06877424 0.4563101

>  <experimental dG reference units>  (9) 
uM

>  <experimental dG reference field>  (9) 
IC50 uM

>  <kJ/mol experimental dG>  (9) 
-37.023020610546034

>  <kcal/mol experimental dG>  (9) 
-8.848714295063584

>  <AmberAM1BCCCache>  (9) 
gASVjAMAAAAAAABdlCiMFm51bXB5Ll9jb3JlLm11bHRpYXJyYXmUjAZzY2FsYXKUk5SMBW51bXB5lIwFZHR5cGWUk5SMAmY4lImIh5RSlChLA4wBPJROTk5K/////0r/////SwB0lGJDCBmcS2ZRGSHAlIaUUpRoA2gJQwiX+jFEJzABQJSGlFKUaANoCUMIGUVicKVk8L+UhpRSlGgDaAlDCHj2ynSrfPG/lIaUUpRoA2gJQwgZRWJwpWTwv5SGlFKUaANoCUMIl/oxRCcwAUCUhpRSlGgDaAlDCP0ZuzcXPfi/lIaUUpRoA2gJQwh4a1Uuoi7EP5SGlFKUaANoCUMI/Pn0+Vm1yD+UhpRSlGgDaAlDCBuJWUCDzvO/lIaUUpRoA2gJQwijS6XOJkL2v5SGlFKUaANoCUMIxNSZuAjK8L+UhpRSlGgDaAlDCMGwsNJqQgpAlIaUUpRoA2gJQwhPQedp468awJSGlFKUaANoCUMIT2Ba0KdMBUCUhpRSlGgDaAlDCCfLvRh24xhAlIaUUpRoA2gJQwiJMVWshcYhwJSGlFKUaANoCUMIUH6cigL0G0CUhpRSlGgDaAlDCIu9SRkZh+S/lIaUUpRoA2gJQwglOdmG787pv5SGlFKUaANoCUMIzgl1rKnpJcCUhpRSlGgDaAlDCAWA8xPvoPI/lIaUUpRoA2gJQwiDHQV/VtTnP5SGlFKUaANoCUMIgx0Ff1bU5z+UhpRSlGgDaAlDCLRfPUhrMOU/lIaUUpRoA2gJQwi0Xz1IazDlP5SGlFKUaANoCUMItF89SGsw5T+UhpRSlGgDaAlDCLRfPUhrMOU/lIaUUpRoA2gJQwiDHQV/VtTnP5SGlFKUaANoCUMIgx0Ff1bU5z+UhpRSlGgDaAlDCNSR/SeqK/4/lIaUUpRoA2gJQwhjvKE7JXn8P5SGlFKUaANoCUMIW6+dUF+53D+UhpRSlGgDaAlDCC1VbTmbZxRAlIaUUpRoA2gJQwgtVW05m2cUQJSGlFKUaANoCUMIHcElk91I/D+UhpRSlGgDaAlDCPaf9/tNcPU/lIaUUpRoA2gJQwi7stoOFcUjwJSGlFKUaANoCUMI9p/3+01w9T+UhpRSlGgDaAlDCCf92cWVvRVAlIaUUpRoA2gJQwgn/dnFlb0VQJSGlFKUaANoCUMIq8M4AKhp6z+UhpRSlGgDaAlDCCf92cWVvRVAlIaUUpRlLg==

$$$$
Example 26
     RDKit          3D

 47 49  0  0  0  0  0  0  0  0999 V2000
   24.5435   41.5792    3.1196 N   0  0  0  0  0  0  0  0  0  0  0  0
   25.5708   40.5464    2.8814 C   0  0  0  0  0  0  0  0  0  0  0  0
   26.9534   40.9118    3.4847 C   0  0  0  0  0  0  0  0  0  0  0  0
   27.4593   42.3280    3.1172 C   0  0  0  0  0  0  0  0  0  0  0  0
   26.2942   43.3330    3.1459 C   0  0  0  0  0  0  0  0  0  0  0  0
   24.9972   42.8297    2.5111 C   0  0  0  0  0  0  0  0  0  0  0  0
   19.6889   40.5703    5.7978 C   0  0  0  0  0  0  0  0  0  0  0  0
   19.5320   40.8408    7.1712 C   0  0  0  0  0  0  0  0  0  0  0  0
   18.3134   40.5554    7.8069 C   0  0  0  0  0  0  0  0  0  0  0  0
   17.2570   40.0202    7.0752 C   0  0  0  0  0  0  0  0  0  0  0  0
   17.4064   39.7521    5.7172 C   0  0  0  0  0  0  0  0  0  0  0  0
   18.6163   40.0206    5.0855 C   0  0  0  0  0  0  0  0  0  0  0  0
   20.9719   40.8186    5.0870 C   0  0  0  0  0  0  0  0  0  0  0  0
   20.9540   41.8118    4.1678 N   0  0  0  0  0  0  0  0  0  0  0  0
   22.0756   42.0762    3.4406 C   0  0  0  0  0  0  0  0  0  0  0  0
   23.2791   41.3456    3.6789 C   0  0  0  0  0  0  0  0  0  0  0  0
   23.2692   40.3395    4.6027 N   0  0  0  0  0  0  0  0  0  0  0  0
   22.1341   40.0692    5.2876 C   0  0  0  0  0  0  0  0  0  0  0  0
   18.0784   40.8427    9.4962 Cl  0  0  0  0  0  0  0  0  0  0  0  0
   20.8203   41.5878    8.0632 Cl  0  0  0  0  0  0  0  0  0  0  0  0
   22.1669   39.0114    6.1899 N   0  0  0  0  0  0  0  0  0  0  0  0
   27.9555   42.2509    1.6614 C   0  0  0  0  0  0  0  0  0  0  0  0
   28.6011   42.7994    3.9160 N   0  0  0  0  0  0  0  0  0  0  0  0
   21.8219   43.0847    2.3396 C   0  0  0  0  0  0  0  0  0  0  0  0
   22.3538   42.8247    1.1534 N   0  0  0  0  0  0  0  0  0  0  0  0
   21.0327   44.0184    2.4666 O   0  0  0  0  0  0  0  0  0  0  0  0
   25.2579   39.5917    3.2986 H   0  0  0  0  0  0  0  0  0  0  0  0
   25.6526   40.3775    1.8069 H   0  0  0  0  0  0  0  0  0  0  0  0
   27.6770   40.1611    3.1633 H   0  0  0  0  0  0  0  0  0  0  0  0
   26.8956   40.7970    4.5696 H   0  0  0  0  0  0  0  0  0  0  0  0
   26.5440   44.2572    2.6300 H   0  0  0  0  0  0  0  0  0  0  0  0
   26.0824   43.6211    4.1756 H   0  0  0  0  0  0  0  0  0  0  0  0
   24.2748   43.6201    2.6763 H   0  0  0  0  0  0  0  0  0  0  0  0
   25.1052   42.7110    1.4315 H   0  0  0  0  0  0  0  0  0  0  0  0
   16.3185   39.7955    7.5604 H   0  0  0  0  0  0  0  0  0  0  0  0
   16.5894   39.3207    5.1563 H   0  0  0  0  0  0  0  0  0  0  0  0
   18.7190   39.7914    4.0335 H   0  0  0  0  0  0  0  0  0  0  0  0
   23.0375   38.5148    6.3535 H   0  0  0  0  0  0  0  0  0  0  0  0
   21.3404   38.7890    6.7207 H   0  0  0  0  0  0  0  0  0  0  0  0
   22.1176   43.4003    0.3593 H   0  0  0  0  0  0  0  0  0  0  0  0
   22.9929   42.0544    1.0175 H   0  0  0  0  0  0  0  0  0  0  0  0
   28.8653   43.7258    3.6125 H   0  0  0  0  0  0  0  0  0  0  0  0
   28.3416   42.8266    4.8917 H   0  0  0  0  0  0  0  0  0  0  0  0
   29.3810   42.1696    3.7926 H   0  0  0  0  0  0  0  0  0  0  0  0
   28.3665   43.1464    1.1723 H   0  0  0  0  0  0  0  0  0  0  0  0
   27.1612   41.8402    1.0380 H   0  0  0  0  0  0  0  0  0  0  0  0
   28.6769   41.4383    1.5758 H   0  0  0  0  0  0  0  0  0  0  0  0
  1  2  1  0
  1  6  1  0
  1 16  1  0
  2  3  1  0
  2 27  1  0
  2 28  1  0
  3  4  1  0
  3 29  1  0
  3 30  1  0
  4  5  1  0
  4 22  1  0
  4 23  1  0
  5  6  1  0
  5 31  1  0
  5 32  1  0
  6 33  1  0
  6 34  1  0
  7  8  2  0
  7 12  1  0
  7 13  1  0
  8  9  1  0
  8 20  1  0
  9 10  2  0
  9 19  1  0
 10 11  1  0
 10 35  1  0
 11 12  2  0
 11 36  1  0
 12 37  1  0
 13 14  2  0
 13 18  1  0
 14 15  1  0
 15 16  2  0
 15 24  1  0
 16 17  1  0
 17 18  2  0
 18 21  1  0
 21 38  1  0
 21 39  1  0
 22 45  1  0
 22 46  1  0
 22 47  1  0
 23 42  1  0
 23 43  1  0
 23 44  1  0
 24 25  1  0
 24 26  2  0
 25 40  1  0
 25 41  1  0
M  CHG  1  23   1
M  END
>  <ID>  (10) 
Example 26

>  <IC50 uM>  (10) 
0.27100000000000002

>  <atom.dprop.PartialCharge>  (10) 
-0.7377597 0.18662614 -0.11514941 0.13635984 -0.11514941 0.18662614 -0.087378435 0.019207586 0.02684814 -0.101180136 -0.11696644 -0.11338503 0.28358582 -0.5504671 0.2188471 0.53166515 -0.72241205 0.6305132 -0.066196136 -0.061944395 -0.92633444 -0.13170627 -0.85212594 0.5946339 -0.6634614 -0.5756956 0.06474761 0.06474761 0.075289354 0.075289354 0.075289354 0.075289354 0.06474761 0.06474761 0.1569246 0.14538397 0.15220842 0.4382601 0.4382601 0.32243574 0.32243574 0.45083767 0.45083767 0.45083767 0.07794297 0.07794297 0.07794297

>  <experimental dG reference units>  (10) 
uM

>  <experimental dG reference field>  (10) 
IC50 uM

>  <kJ/mol experimental dG>  (10) 
-37.71748392078293

>  <kcal/mol experimental dG>  (10) 
-9.014695009747355

>  <AmberAM1BCCCache>  (10) 
gASV2AMAAAAAAABdlCiMFm51bXB5Ll9jb3JlLm11bHRpYXJyYXmUjAZzY2FsYXKUk5SMBW51bXB5lIwFZHR5cGWUk5SMAmY4lImIh5RSlChLA4wBPJROTk5K/////0r/////SwB0lGJDCHIdezNPjyHAlIaUUpRoA2gJQwgRr039ViQCQJSGlFKUaANoCUMIBVM2FGT087+UhpRSlGgDaAlDCF8+mMmqbP8/lIaUUpRoA2gJQwgFUzYUZPTzv5SGlFKUaANoCUMIEa9N/VYkAkCUhpRSlGgDaAlDCNI6nzm3C/u/lIaUUpRoA2gJQwiPRhLsulnDP5SGlFKUaANoCUMIsOERobNfxz+UhpRSlGgDaAlDCF4FNt659/K/lIaUUpRoA2gJQwgiuMlITAz2v5SGlFKUaANoCUMI1kLqTxaE8L+UhpRSlGgDaAlDCPRpUONSBgtAlIaUUpRoA2gJQwg5XQbXYJoawJSGlFKUaANoCUMIamFNx6wnAUCUhpRSlGgDaAlDCNpe2tu6LRxAlIaUUpRoA2gJQwgZsu5qj0QiwJSGlFKUaANoCUMILTwSWsiPHUCUhpRSlGgDaAlDCPnIErNnGOK/lIaUUpRoA2gJQwhJFXq1CkPpv5SGlFKUaANoCUMIP5Lq/DsXJsCUhpRSlGgDaAlDCGfDkP6Fufu/lIaUUpRoA2gJQwh6NFXjDDckwJSGlFKUaANoCUMIxa53FfINHECUhpRSlGgDaAlDCPYEZnWaHx7AlIaUUpRoA2gJQwhF6b5O7TQewJSGlFKUaANoCUMIf/a55qlc6z+UhpRSlGgDaAlDCH/2ueapXOs/lIaUUpRoA2gJQwiYF1ZLtArqP5SGlFKUaANoCUMImBdWS7QK6j+UhpRSlGgDaAlDCJgXVku0Cuo/lIaUUpRoA2gJQwiYF1ZLtArqP5SGlFKUaANoCUMIf/a55qlc6z+UhpRSlGgDaAlDCH/2ueapXOs/lIaUUpRoA2gJQwhOGqXhK9L+P5SGlFKUaANoCUMI3ERJ9aYf/T+UhpRSlGgDaAlDCHBGdRKPD/0/lIaUUpRoA2gJQwhVp3mALTQVQJSGlFKUaANoCUMIVad5gC00FUCUhpRSlGgDaAlDCCYbuDD9Kg5AlIaUUpRoA2gJQwgmG7gw/SoOQJSGlFKUaANoCUMI2u0aQllSFUCUhpRSlGgDaAlDCNrtGkJZUhVAlIaUUpRoA2gJQwja7RpCWVIVQJSGlFKUaANoCUMIueQfG6R68T+UhpRSlGgDaAlDCLnkHxukevE/lIaUUpRoA2gJQwi55B8bpHrxP5SGlFKUZS4=

$$$$
10
     RDKit          3D

 41 43  0  0  0  0  0  0  0  0999 V2000
   24.5557   41.3942    2.9358 N   0  0  0  0  0  0  0  0  0  0  0  0
   24.8217   42.5879    2.1047 C   0  0  0  0  0  0  0  0  0  0  0  0
   25.8975   43.4906    2.7355 C   0  0  0  0  0  0  0  0  0  0  0  0
   27.1938   42.7114    3.0214 C   0  0  0  0  0  0  0  0  0  0  0  0
   26.8897   41.4069    3.7882 C   0  0  0  0  0  0  0  0  0  0  0  0
   25.7738   40.5799    3.1148 C   0  0  0  0  0  0  0  0  0  0  0  0
   19.6903   40.5200    5.5265 C   0  0  0  0  0  0  0  0  0  0  0  0
   19.3824   40.8396    6.8595 C   0  0  0  0  0  0  0  0  0  0  0  0
   18.0812   40.6300    7.3396 C   0  0  0  0  0  0  0  0  0  0  0  0
   17.1026   40.0983    6.5003 C   0  0  0  0  0  0  0  0  0  0  0  0
   17.4075   39.7897    5.1791 C   0  0  0  0  0  0  0  0  0  0  0  0
   18.6880   40.0180    4.6931 C   0  0  0  0  0  0  0  0  0  0  0  0
   21.0236   40.7425    4.9440 C   0  0  0  0  0  0  0  0  0  0  0  0
   21.0730   41.7667    4.0636 N   0  0  0  0  0  0  0  0  0  0  0  0
   22.2439   41.9993    3.4410 C   0  0  0  0  0  0  0  0  0  0  0  0
   23.3841   41.2146    3.6674 C   0  0  0  0  0  0  0  0  0  0  0  0
   23.3208   40.1779    4.5575 N   0  0  0  0  0  0  0  0  0  0  0  0
   22.1506   39.9550    5.2090 C   0  0  0  0  0  0  0  0  0  0  0  0
   17.6473   41.0428    8.9606 Cl  0  0  0  0  0  0  0  0  0  0  0  0
   20.5761   41.5664    7.8891 Cl  0  0  0  0  0  0  0  0  0  0  0  0
   28.0749   43.5997    3.9053 N   0  0  0  0  0  0  0  0  0  0  0  0
   27.9744   42.4341    1.7292 C   0  0  0  0  0  0  0  0  0  0  0  0
   25.0585   42.3021    1.0792 H   0  0  0  0  0  0  0  0  0  0  0  0
   23.9442   43.2084    1.9782 H   0  0  0  0  0  0  0  0  0  0  0  0
   25.4794   43.9544    3.6310 H   0  0  0  0  0  0  0  0  0  0  0  0
   26.0902   44.3302    2.0637 H   0  0  0  0  0  0  0  0  0  0  0  0
   26.5783   41.6104    4.8061 H   0  0  0  0  0  0  0  0  0  0  0  0
   27.7884   40.7983    3.8871 H   0  0  0  0  0  0  0  0  0  0  0  0
   26.1064   40.1787    2.1571 H   0  0  0  0  0  0  0  0  0  0  0  0
   25.5597   39.6965    3.7150 H   0  0  0  0  0  0  0  0  0  0  0  0
   16.0953   39.9519    6.8631 H   0  0  0  0  0  0  0  0  0  0  0  0
   16.6529   39.3881    4.5218 H   0  0  0  0  0  0  0  0  0  0  0  0
   18.9075   39.7684    3.6629 H   0  0  0  0  0  0  0  0  0  0  0  0
   28.9389   43.1200    4.1164 H   0  0  0  0  0  0  0  0  0  0  0  0
   27.4154   41.7693    1.0708 H   0  0  0  0  0  0  0  0  0  0  0  0
   28.9337   41.9601    1.9428 H   0  0  0  0  0  0  0  0  0  0  0  0
   28.1654   43.3564    1.1789 H   0  0  0  0  0  0  0  0  0  0  0  0
   28.2826   44.4545    3.3885 H   0  0  0  0  0  0  0  0  0  0  0  0
   22.1353   39.1266    5.9026 H   0  0  0  0  0  0  0  0  0  0  0  0
   22.2035   42.8271    2.7583 H   0  0  0  0  0  0  0  0  0  0  0  0
   27.6036   43.8514    4.7631 H   0  0  0  0  0  0  0  0  0  0  0  0
  1  2  1  0
  1  6  1  0
  1 16  1  0
  2  3  1  0
  2 23  1  0
  2 24  1  0
  3  4  1  0
  3 25  1  0
  3 26  1  0
  4  5  1  0
  4 21  1  0
  4 22  1  0
  5  6  1  0
  5 27  1  0
  5 28  1  0
  6 29  1  0
  6 30  1  0
  7  8  2  0
  7 12  1  0
  7 13  1  0
  8  9  1  0
  8 20  1  0
  9 10  2  0
  9 19  1  0
 10 11  1  0
 10 31  1  0
 11 12  2  0
 11 32  1  0
 12 33  1  0
 13 14  2  0
 13 18  1  0
 14 15  1  0
 15 16  2  0
 15 40  1  0
 16 17  1  0
 17 18  2  0
 18 39  1  0
 21 34  1  0
 21 38  1  0
 21 41  1  0
 22 35  1  0
 22 36  1  0
 22 37  1  0
M  CHG  1  21   1
M  END
>  <ID>  (11) 
10

>  <IC50 uM>  (11) 
5.7000000000000002

>  <atom.dprop.PartialCharge>  (11) 
-0.7512636 0.19100714 -0.11331772 0.13849276 -0.11331772 0.19100714 -0.13402946 0.052152053 0.023886394 -0.1006409 -0.118945904 -0.087459154 0.3180809 -0.6061857 0.34810185 0.46517166 -0.62662387 0.32905334 -0.06446472 -0.060307942 -0.8514664 -0.1310468 0.06487125 0.06487125 0.07649964 0.07649964 0.07649964 0.07649964 0.06487125 0.06487125 0.15758409 0.14624529 0.15188804 0.45149717 0.07860243 0.07860243 0.07860243 0.45149717 0.048842385 0.041774496 0.45149717

>  <experimental dG reference units>  (11) 
uM

>  <experimental dG reference field>  (11) 
IC50 uM

>  <kJ/mol experimental dG>  (11) 
-30.119427572477868

>  <kcal/mol experimental dG>  (11) 
-7.198715959005226

>  <AmberAM1BCCCache>  (11) 
gASVZgMAAAAAAABdlCiMFm51bXB5Ll9jb3JlLm11bHRpYXJyYXmUjAZzY2FsYXKUk5SMBW51bXB5lIwFZHR5cGWUk5SMAmY4lImIh5RSlChLA4wBPJROTk5K/////0r/////SwB0lGJDCBY6BI1vsiDAlIaUUpRoA2gJQwj+nuFuRHb/P5SGlFKUaANoCUMIkJZgMvd+87+UhpRSlGgDaAlDCG1KnGxhtfw/lIaUUpRoA2gJQwiQlmAy937zv5SGlFKUaANoCUMI/p7hbkR2/z+UhpRSlGgDaAlDCP1HW2mCwfy/lIaUUpRoA2gJQwiBveYl6DbZP5SGlFKUaANoCUMI7SMQhoFFxz+UhpRSlGgDaAlDCCdT/rmxGfK/lIaUUpRoA2gJQwir4Z2FaaD2v5SGlFKUaANoCUMIK4eqfJ0G8L+UhpRSlGgDaAlDCAW/d1uAqBFAlIaUUpRoA2gJQwhaNpyWUrYcwJSGlFKUaANoCUMIsBqJVlwcD0CUhpRSlGgDaAlDCNsb5PblFBRAlIaUUpRoA2gJQwi09wYPCDYfwJSGlFKUaANoCUMIDjehY676DUCUhpRSlGgDaAlDCEI1e/8jP+K/lIaUUpRoA2gJQwjynfoOGUjov5SGlFKUaANoCUMIZb5z4kgZJMCUhpRSlGgDaAlDCGkqGa3/2fm/lIaUUpRoA2gJQwhribuL+T3rP5SGlFKUaANoCUMIa4m7i/k96z+UhpRSlGgDaAlDCMiLfbfVJes/lIaUUpRoA2gJQwjIi3231SXrP5SGlFKUaANoCUMIyIt9t9Ul6z+UhpRSlGgDaAlDCMiLfbfVJes/lIaUUpRoA2gJQwhribuL+T3rP5SGlFKUaANoCUMIa4m7i/k96z+UhpRSlGgDaAlDCCnkcLvNvv4/lIaUUpRoA2gJQwhxE5kmAdz8P5SGlFKUaANoCUMILBgdfrmr/D+UhpRSlGgDaAlDCF/cn2+9dRVAlIaUUpRoA2gJQwjy5qiEI7PuP5SGlFKUaANoCUMI8uaohCOz7j+UhpRSlGgDaAlDCPLmqIQjs+4/lIaUUpRoA2gJQwhf3J9vvXUVQJSGlFKUaANoCUMI7/fEPM3K5D+UhpRSlGgDaAlDCK0w9VZxh+I/lIaUUpRoA2gJQwhf3J9vvXUVQJSGlFKUZS4=

$$$$
6
     RDKit          3D

 40 42  0  0  0  0  0  0  0  0999 V2000
   24.5492   41.4103    2.9581 N   0  0  0  0  0  0  0  0  0  0  0  0
   24.8206   42.5674    2.0917 C   0  0  0  0  0  0  0  0  0  0  0  0
   25.9010   43.4845    2.7073 C   0  0  0  0  0  0  0  0  0  0  0  0
   27.2006   42.7197    3.0160 C   0  0  0  0  0  0  0  0  0  0  0  0
   26.8994   41.4031    3.7428 C   0  0  0  0  0  0  0  0  0  0  0  0
   25.7707   40.5926    3.0746 C   0  0  0  0  0  0  0  0  0  0  0  0
   19.6801   40.5131    5.5639 C   0  0  0  0  0  0  0  0  0  0  0  0
   19.3880   40.8059    6.9100 C   0  0  0  0  0  0  0  0  0  0  0  0
   18.0896   40.6058    7.4051 C   0  0  0  0  0  0  0  0  0  0  0  0
   17.0975   40.0865    6.5706 C   0  0  0  0  0  0  0  0  0  0  0  0
   17.3885   39.7774    5.2446 C   0  0  0  0  0  0  0  0  0  0  0  0
   18.6614   40.0160    4.7431 C   0  0  0  0  0  0  0  0  0  0  0  0
   20.9975   40.7599    4.9628 C   0  0  0  0  0  0  0  0  0  0  0  0
   21.1772   41.8132    4.0533 C   0  0  0  0  0  0  0  0  0  0  0  0
   22.3346   42.0475    3.4126 N   0  0  0  0  0  0  0  0  0  0  0  0
   23.3734   41.2177    3.6872 C   0  0  0  0  0  0  0  0  0  0  0  0
   23.3126   40.1834    4.5784 N   0  0  0  0  0  0  0  0  0  0  0  0
   22.1341   39.9630    5.2013 C   0  0  0  0  0  0  0  0  0  0  0  0
   17.6784   41.0592    9.0215 Cl  0  0  0  0  0  0  0  0  0  0  0  0
   20.6099   41.5010    7.9303 Cl  0  0  0  0  0  0  0  0  0  0  0  0
   22.0817   38.8852    6.0763 N   0  0  0  0  0  0  0  0  0  0  0  0
   28.0958   43.6100    3.9243 N   0  0  0  0  0  0  0  0  0  0  0  0
   23.9362   43.1801    1.9134 H   0  0  0  0  0  0  0  0  0  0  0  0
   25.1411   42.2139    1.1097 H   0  0  0  0  0  0  0  0  0  0  0  0
   26.1018   44.3579    2.0849 H   0  0  0  0  0  0  0  0  0  0  0  0
   25.4758   43.9149    3.6140 H   0  0  0  0  0  0  0  0  0  0  0  0
   27.8085   40.8158    3.8859 H   0  0  0  0  0  0  0  0  0  0  0  0
   26.5566   41.6353    4.7463 H   0  0  0  0  0  0  0  0  0  0  0  0
   25.6109   39.6728    3.6282 H   0  0  0  0  0  0  0  0  0  0  0  0
   26.0829   40.2916    2.0753 H   0  0  0  0  0  0  0  0  0  0  0  0
   16.0828   39.9773    6.9300 H   0  0  0  0  0  0  0  0  0  0  0  0
   16.6300   39.3918    4.5807 H   0  0  0  0  0  0  0  0  0  0  0  0
   18.8719   39.7811    3.7086 H   0  0  0  0  0  0  0  0  0  0  0  0
   28.2559   44.4914    3.4401 H   0  0  0  0  0  0  0  0  0  0  0  0
   27.6465   43.8153    4.7999 H   0  0  0  0  0  0  0  0  0  0  0  0
   22.9510   38.4014    6.2942 H   0  0  0  0  0  0  0  0  0  0  0  0
   20.3640   42.4825    3.8394 H   0  0  0  0  0  0  0  0  0  0  0  0
   27.6753   42.4671    2.0654 H   0  0  0  0  0  0  0  0  0  0  0  0
   21.2504   38.7041    6.6087 H   0  0  0  0  0  0  0  0  0  0  0  0
   28.9838   43.1729    4.1119 H   0  0  0  0  0  0  0  0  0  0  0  0
  1  2  1  0
  1  6  1  0
  1 16  1  0
  2  3  1  0
  2 23  1  0
  2 24  1  0
  3  4  1  0
  3 25  1  0
  3 26  1  0
  4  5  1  0
  4 22  1  0
  4 38  1  0
  5  6  1  0
  5 27  1  0
  5 28  1  0
  6 29  1  0
  6 30  1  0
  7  8  2  0
  7 12  1  0
  7 13  1  0
  8  9  1  0
  8 20  1  0
  9 10  2  0
  9 19  1  0
 10 11  1  0
 10 31  1  0
 11 12  2  0
 11 32  1  0
 12 33  1  0
 13 14  2  0
 13 18  1  0
 14 15  1  0
 14 37  1  0
 15 16  2  0
 16 17  1  0
 17 18  2  0
 18 21  1  0
 21 36  1  0
 21 39  1  0
 22 34  1  0
 22 35  1  0
 22 40  1  0
M  CHG  1  22   1
M  END
>  <ID>  (12) 
6

>  <IC50 uM>  (12) 
1.3

>  <atom.dprop.PartialCharge>  (12) 
-0.7868984 0.20479228 -0.12762195 0.12682691 -0.12762195 0.20479228 0.027463628 0.0037334785 0.030214623 -0.10843228 -0.11193901 -0.12138374 -0.37146246 0.49453726 -0.714191 0.90505266 -0.7735001 0.7371449 -0.0682149 -0.06778792 -0.93454206 -0.8490043 0.07089769 0.07089769 0.0788172 0.0788172 0.0788172 0.0788172 0.07089769 0.07089769 0.15676647 0.1457785 0.14892755 0.45664236 0.45664236 0.4328743 0.032082915 0.1099515 0.4328743 0.45664236

>  <experimental dG reference units>  (12) 
uM

>  <experimental dG reference field>  (12) 
IC50 uM

>  <kJ/mol experimental dG>  (12) 
-33.806336044337584

>  <kcal/mol experimental dG>  (12) 
-8.07990823239426

>  <AmberAM1BCCCache>  (12) 
gASVUwMAAAAAAABdlCiMFm51bXB5Ll9jb3JlLm11bHRpYXJyYXmUjAZzY2FsYXKUk5SMBW51bXB5lIwFZHR5cGWUk5SMAmY4lImIh5RSlChLA4wBPJROTk5K/////0r/////SwB0lGJDCBatZfNIeSHAlIaUUpRoA2gJQwgVZSQqHfECQJSGlFKUaANoCUMInJbE6pmP9b+UhpRSlGgDaAlDCD6HV86CLPY/lIaUUpRoA2gJQwiclsTqmY/1v5SGlFKUaANoCUMIFWUkKh3xAkCUhpRSlGgDaAlDCKh0/4HRD86/lIaUUpRoA2gJQwhxGN+kwZK5P5SGlFKUaANoCUMI8BEuecXfyz+UhpRSlGgDaAlDCHlO3hqcWvS/lIaUUpRoA2gJQwhgLUK2kaz1v5SGlFKUaANoCUMIBEXWayu79L+UhpRSlGgDaAlDCK/KlRjPLxHAlIaUUpRoA2gJQwjvYV5lzOoXQJSGlFKUaANoCUMINL361s1cIsCUhpRSlGgDaAlDCDZydCEqGSVAlIaUUpRoA2gJQwj4JHYWPVQjwJSGlFKUaANoCUMItCMn/MKXIUCUhpRSlGgDaAlDCI93ezl+vOO/lIaUUpRoA2gJQwg/4PpIc8Xpv5SGlFKUaANoCUMIkJxgWoY3JsCUhpRSlGgDaAlDCKHJWQmz6CPAlIaUUpRoA2gJQwhF05jxel/uP5SGlFKUaANoCUMIRdOY8Xpf7j+UhpRSlGgDaAlDCDIA/zDSlOw/lIaUUpRoA2gJQwgyAP8w0pTsP5SGlFKUaANoCUMIMgD/MNKU7D+UhpRSlGgDaAlDCDIA/zDSlOw/lIaUUpRoA2gJQwhF05jxel/uP5SGlFKUaANoCUMIRdOY8Xpf7j+UhpRSlGgDaAlDCNS05Jf3kP4/lIaUUpRoA2gJQwjX6JBa4338P5SGlFKUaANoCUMIewAlEH2M+z+UhpRSlGgDaAlDCLsCMJ6KlhVAlIaUUpRoA2gJQwi7AjCeipYVQJSGlFKUaANoCUMIsJKNxZjzFECUhpRSlGgDaAlDCGooKrKzD98/lIaUUpRoA2gJQwiZ2nIhNeT0P5SGlFKUaANoCUMIsJKNxZjzFECUhpRSlGgDaAlDCLsCMJ6KlhVAlIaUUpRlLg==

$$$$
SHP836-2
     RDKit          3D

 43 45  0  0  0  0  0  0  0  0999 V2000
   24.6991   41.2880    3.1084 N   0  0  0  0  0  0  0  0  0  0  0  0
   24.7544   42.3659    2.0828 C   0  0  0  0  0  0  0  0  0  0  0  0
   26.0819   43.1849    2.0777 C   0  0  1  0  0  0  0  0  0  0  0  0
   27.2540   42.3327    2.4127 N   0  0  0  0  0  0  0  0  0  0  0  0
   27.1216   41.4947    3.6356 C   0  0  1  0  0  0  0  0  0  0  0  0
   25.9265   40.5256    3.4438 C   0  0  0  0  0  0  0  0  0  0  0  0
   19.7062   40.2071    5.4923 C   0  0  0  0  0  0  0  0  0  0  0  0
   19.4758   40.5221    6.8291 C   0  0  0  0  0  0  0  0  0  0  0  0
   18.1971   40.3798    7.3797 C   0  0  0  0  0  0  0  0  0  0  0  0
   17.1161   39.9866    6.5815 C   0  0  0  0  0  0  0  0  0  0  0  0
   17.3356   39.6937    5.2208 C   0  0  0  0  0  0  0  0  0  0  0  0
   18.6213   39.8380    4.6722 C   0  0  0  0  0  0  0  0  0  0  0  0
   21.0642   40.4372    4.9252 C   0  0  0  0  0  0  0  0  0  0  0  0
   21.1830   41.4378    3.9557 C   0  0  0  0  0  0  0  0  0  0  0  0
   22.3711   41.6614    3.3749 N   0  0  0  0  0  0  0  0  0  0  0  0
   23.5007   40.9783    3.7010 C   0  0  0  0  0  0  0  0  0  0  0  0
   23.3990   40.0008    4.6377 N   0  0  0  0  0  0  0  0  0  0  0  0
   22.2307   39.6970    5.2474 C   0  0  0  0  0  0  0  0  0  0  0  0
   17.9053   40.7260    9.0476 Cl  0  0  0  0  0  0  0  0  0  0  0  0
   20.7793   41.0806    7.8271 Cl  0  0  0  0  0  0  0  0  0  0  0  0
   22.2243   38.6162    6.2289 N   0  0  0  0  0  0  0  0  0  0  0  0
   26.2804   43.8713    0.7588 C   0  0  0  0  0  0  0  0  0  0  0  0
   28.3857   40.7219    3.8699 C   0  0  0  0  0  0  0  0  0  0  0  0
   23.9260   43.0695    2.1829 H   0  0  0  0  0  0  0  0  0  0  0  0
   24.6132   41.8870    1.1126 H   0  0  0  0  0  0  0  0  0  0  0  0
   26.0127   43.9714    2.8315 H   0  0  0  0  0  0  0  0  0  0  0  0
   28.0684   42.9226    2.5058 H   0  0  0  0  0  0  0  0  0  0  0  0
   26.9647   42.1292    4.5101 H   0  0  0  0  0  0  0  0  0  0  0  0
   25.8054   39.9385    4.3559 H   0  0  0  0  0  0  0  0  0  0  0  0
   26.1227   39.8070    2.6470 H   0  0  0  0  0  0  0  0  0  0  0  0
   16.1290   39.8934    7.0111 H   0  0  0  0  0  0  0  0  0  0  0  0
   16.5096   39.3856    4.5953 H   0  0  0  0  0  0  0  0  0  0  0  0
   18.7713   39.6322    3.6215 H   0  0  0  0  0  0  0  0  0  0  0  0
   20.3447   42.0392    3.6354 H   0  0  0  0  0  0  0  0  0  0  0  0
   21.3665   38.3671    6.7002 H   0  0  0  0  0  0  0  0  0  0  0  0
   23.0777   38.1175    6.4364 H   0  0  0  0  0  0  0  0  0  0  0  0
   25.4101   44.4885    0.5358 H   0  0  0  0  0  0  0  0  0  0  0  0
   26.4061   43.1238   -0.0245 H   0  0  0  0  0  0  0  0  0  0  0  0
   27.1693   44.5003    0.8067 H   0  0  0  0  0  0  0  0  0  0  0  0
   28.2778   40.1122    4.7670 H   0  0  0  0  0  0  0  0  0  0  0  0
   29.2167   41.4153    3.9996 H   0  0  0  0  0  0  0  0  0  0  0  0
   28.5812   40.0767    3.0134 H   0  0  0  0  0  0  0  0  0  0  0  0
   27.3969   41.7025    1.6369 H   0  0  0  0  0  0  0  0  0  0  0  0
  1  2  1  0
  1  6  1  0
  1 16  1  0
  2  3  1  0
  2 24  1  0
  2 25  1  0
  3  4  1  0
  3 22  1  0
  3 26  1  1
  4  5  1  0
  4 27  1  0
  4 43  1  0
  5  6  1  0
  5 23  1  0
  5 28  1  1
  6 29  1  0
  6 30  1  0
  7  8  2  0
  7 12  1  0
  7 13  1  0
  8  9  1  0
  8 20  1  0
  9 10  2  0
  9 19  1  0
 10 11  1  0
 10 31  1  0
 11 12  2  0
 11 32  1  0
 12 33  1  0
 13 14  2  0
 13 18  1  0
 14 15  1  0
 14 34  1  0
 15 16  2  0
 16 17  1  0
 17 18  2  0
 18 21  1  0
 21 35  1  0
 21 36  1  0
 22 37  1  0
 22 38  1  0
 22 39  1  0
 23 40  1  0
 23 41  1  0
 23 42  1  0
M  CHG  1   4   1
M  END
>  <ID>  (13) 
SHP836-2

>  <IC50 uM>  (13) 
12

>  <atom.dprop.PartialCharge>  (13) 
-0.78080964 0.19170113 0.12008272 -0.77709866 0.12008272 0.19170113 0.02927008 0.0055399947 0.03202126 -0.10662576 -0.110132456 -0.119577244 -0.36965567 0.53066707 -0.746175 0.87404907 -0.784453 0.7607988 -0.06640817 -0.065981194 -0.9327352 -0.13071892 -0.13071892 0.079253204 0.079253204 0.11018002 0.4471681 0.11018002 0.079253204 0.079253204 0.15857314 0.14758515 0.15073419 0.03388951 0.43468088 0.43468088 0.07888713 0.07888713 0.07888713 0.07888713 0.07888713 0.07888713 0.4471681

>  <experimental dG reference units>  (13) 
uM

>  <experimental dG reference field>  (13) 
IC50 uM

>  <kJ/mol experimental dG>  (13) 
-28.26252996980408

>  <kcal/mol experimental dG>  (13) 
-6.754906780545908

>  <AmberAM1BCCCache>  (13) 
gASVjAMAAAAAAABdlCiMFm51bXB5Ll9jb3JlLm11bHRpYXJyYXmUjAZzY2FsYXKUk5SMBW51bXB5lIwFZHR5cGWUk5SMAmY4lImIh5RSlChLA4wBPJROTk5K/////0r/////SwB0lGJDCD1ZYO6JdyHAlIaUUpRoA2gJQwiy50/yEO0AQJSGlFKUaANoCUMIWQO6dIic9z+UhpRSlGgDaAlDCNhwhlydDiLAlIaUUpRoA2gJQwhZA7p0iJz3P5SGlFKUaANoCUMIsudP8hDtAECUhpRSlGgDaAlDCGCIZOjaGta/lIaUUpRoA2gJQwh40giCQHW8P5SGlFKUaANoCUMIyBTjo8fOyz+UhpRSlGgDaAlDCOG9P/nMu/O/lIaUUpRoA2gJQwi/kW/IaX71v5SGlFKUaANoCUMIi6xbuNNs9L+UhpRSlGgDaAlDCMgwzA2AnxDAlIaUUpRoA2gJQwj9CyubJtYXQJSGlFKUaANoCUMIsW0uIs0uIsCUhpRSlGgDaAlDCGFL7oiY5CRAlIaUUpRoA2gJQwiLz0T0lWIjwJSGlFKUaANoCUMI+XUA5JmpIUCUhpRSlGgDaAlDCCFm9hnx3eG/lIaUUpRoA2gJQwjWpf0yU4npv5SGlFKUaANoCUMIUkgQTs05JsCUhpRSlGgDaAlDCCHyfqWZxve/lIaUUpRoA2gJQwgh8n6lmcb3v5SGlFKUaANoCUMIjteiGJow8T+UhpRSlGgDaAlDCI7XohiaMPE/lIaUUpRoA2gJQwhsuH3YcW7yP5SGlFKUaANoCUMIOzdAlUYXFUCUhpRSlGgDaAlDCGy4fdhxbvI/lIaUUpRoA2gJQwiO16IYmjDxP5SGlFKUaANoCUMIjteiGJow8T+UhpRSlGgDaAlDCLlLMy5n7/4/lIaUUpRoA2gJQwi8f9/wUtz8P5SGlFKUaANoCUMIQp9POHWa+z+UhpRSlGgDaAlDCPArSm0HJuE/lIaUUpRoA2gJQwirtNhlbTEVQJSGlFKUaANoCUMIq7TYZW0xFUCUhpRSlGgDaAlDCBMbjP/PEu4/lIaUUpRoA2gJQwgTG4z/zxLuP5SGlFKUaANoCUMIExuM/88S7j+UhpRSlGgDaAlDCBMbjP/PEu4/lIaUUpRoA2gJQwgTG4z/zxLuP5SGlFKUaANoCUMIExuM/88S7j+UhpRSlGgDaAlDCDs3QJVGFxVAlIaUUpRlLg==

$$$$
Example 30
     RDKit          3D

 42 44  0  0  0  0  0  0  0  0999 V2000
   24.5353   41.3991    2.9617 N   0  0  0  0  0  0  0  0  0  0  0  0
   24.7904   42.5868    2.1178 C   0  0  0  0  0  0  0  0  0  0  0  0
   25.8810   43.4864    2.7374 C   0  0  0  0  0  0  0  0  0  0  0  0
   27.1904   42.7177    3.0202 C   0  0  0  0  0  0  0  0  0  0  0  0
   26.8799   41.4106    3.7771 C   0  0  0  0  0  0  0  0  0  0  0  0
   25.7613   40.5911    3.1100 C   0  0  0  0  0  0  0  0  0  0  0  0
   19.6930   40.5254    5.5288 C   0  0  0  0  0  0  0  0  0  0  0  0
   19.4034   40.8157    6.8758 C   0  0  0  0  0  0  0  0  0  0  0  0
   18.1082   40.6044    7.3696 C   0  0  0  0  0  0  0  0  0  0  0  0
   17.1167   40.0887    6.5328 C   0  0  0  0  0  0  0  0  0  0  0  0
   17.4098   39.7819    5.2071 C   0  0  0  0  0  0  0  0  0  0  0  0
   18.6895   40.0203    4.7125 C   0  0  0  0  0  0  0  0  0  0  0  0
   21.0365   40.7490    4.9467 C   0  0  0  0  0  0  0  0  0  0  0  0
   21.1333   41.7708    4.0585 N   0  0  0  0  0  0  0  0  0  0  0  0
   22.2940   41.9986    3.4273 N   0  0  0  0  0  0  0  0  0  0  0  0
   23.3597   41.1910    3.6865 C   0  0  0  0  0  0  0  0  0  0  0  0
   23.3270   40.1643    4.5796 N   0  0  0  0  0  0  0  0  0  0  0  0
   22.1528   39.9456    5.2064 C   0  0  0  0  0  0  0  0  0  0  0  0
   17.6833   41.0096    8.9986 Cl  0  0  0  0  0  0  0  0  0  0  0  0
   20.6245   41.4803    7.9166 Cl  0  0  0  0  0  0  0  0  0  0  0  0
   22.1086   38.8756    6.0941 N   0  0  0  0  0  0  0  0  0  0  0  0
   28.0640   43.6032    3.9216 N   0  0  0  0  0  0  0  0  0  0  0  0
   27.9783   42.4349    1.7217 C   0  0  0  0  0  0  0  0  0  0  0  0
   25.0622   42.2702    1.1121 H   0  0  0  0  0  0  0  0  0  0  0  0
   23.8919   43.1904    1.9925 H   0  0  0  0  0  0  0  0  0  0  0  0
   25.4681   43.9379    3.6411 H   0  0  0  0  0  0  0  0  0  0  0  0
   26.0761   44.3323    2.0760 H   0  0  0  0  0  0  0  0  0  0  0  0
   26.5552   41.6277    4.7883 H   0  0  0  0  0  0  0  0  0  0  0  0
   27.7778   40.8018    3.8837 H   0  0  0  0  0  0  0  0  0  0  0  0
   26.0791   40.2303    2.1341 H   0  0  0  0  0  0  0  0  0  0  0  0
   25.5850   39.6899    3.6945 H   0  0  0  0  0  0  0  0  0  0  0  0
   16.1095   39.9553    6.9017 H   0  0  0  0  0  0  0  0  0  0  0  0
   16.6477   39.3919    4.5519 H   0  0  0  0  0  0  0  0  0  0  0  0
   18.8949   39.7782    3.6715 H   0  0  0  0  0  0  0  0  0  0  0  0
   22.9746   38.3788    6.2904 H   0  0  0  0  0  0  0  0  0  0  0  0
   21.2689   38.6932    6.6209 H   0  0  0  0  0  0  0  0  0  0  0  0
   28.9333   43.1400    4.1444 H   0  0  0  0  0  0  0  0  0  0  0  0
   27.4275   41.7736    1.0493 H   0  0  0  0  0  0  0  0  0  0  0  0
   28.9366   41.9502    1.9281 H   0  0  0  0  0  0  0  0  0  0  0  0
   28.1799   43.3541    1.1679 H   0  0  0  0  0  0  0  0  0  0  0  0
   28.2675   44.4651    3.4205 H   0  0  0  0  0  0  0  0  0  0  0  0
   27.5917   43.8449    4.7797 H   0  0  0  0  0  0  0  0  0  0  0  0
  1  2  1  0
  1  6  1  0
  1 16  1  0
  2  3  1  0
  2 24  1  0
  2 25  1  0
  3  4  1  0
  3 26  1  0
  3 27  1  0
  4  5  1  0
  4 22  1  0
  4 23  1  0
  5  6  1  0
  5 28  1  0
  5 29  1  0
  6 30  1  0
  6 31  1  0
  7  8  2  0
  7 12  1  0
  7 13  1  0
  8  9  1  0
  8 20  1  0
  9 10  2  0
  9 19  1  0
 10 11  1  0
 10 32  1  0
 11 12  2  0
 11 33  1  0
 12 34  1  0
 13 14  2  0
 13 18  1  0
 14 15  1  0
 15 16  2  0
 16 17  1  0
 17 18  2  0
 18 21  1  0
 21 35  1  0
 21 36  1  0
 22 37  1  0
 22 41  1  0
 22 42  1  0
 23 38  1  0
 23 39  1  0
 23 40  1  0
M  CHG  1  22   1
M  END
>  <ID>  (14) 
Example 30

>  <IC50 uM>  (14) 
0.19400000000000001

>  <atom.dprop.PartialCharge>  (14) 
-0.77248037 0.21231276 -0.112922974 0.13896158 -0.112922974 0.21231276 -0.08272821 0.012567807 0.03412646 -0.103651114 -0.11253092 -0.1100156 0.12903474 -0.21041138 -0.36073306 0.8497039 -0.7602025 0.6578107 -0.066151366 -0.064775884 -0.9297315 -0.8497828 -0.12945935 0.06805808 0.06805808 0.07761234 0.07761234 0.07761234 0.07761234 0.06805808 0.06805808 0.15854067 0.1459663 0.15363246 0.44740498 0.44740498 0.45245373 0.07955897 0.07955897 0.07955897 0.45245373 0.45245373

>  <experimental dG reference units>  (14) 
uM

>  <experimental dG reference field>  (14) 
IC50 uM

>  <kJ/mol experimental dG>  (14) 
-38.551248126898614

>  <kcal/mol experimental dG>  (14) 
-9.21396943759527

>  <AmberAM1BCCCache>  (14) 
gASVeQMAAAAAAABdlCiMFm51bXB5Ll9jb3JlLm11bHRpYXJyYXmUjAZzY2FsYXKUk5SMBW51bXB5lIwFZHR5cGWUk5SMAmY4lImIh5RSlChLA4wBPJROTk5K/////0r/////SwB0lGJDCJKyC0UYhiHAlIaUUpRoA2gJQwglQuHypEIDQJSGlFKUaANoCUMIH9qILa4E9b+UhpRSlGgDaAlDCH/qW2RYUfw/lIaUUpRoA2gJQwgf2ogtrgT1v5SGlFKUaANoCUMIJULh8qRCA0CUhpRSlGgDaAlDCAwxkFttrfe/lIaUUpRoA2gJQwgfcE28viDBP5SGlFKUaANoCUMI/LKsD/GryD+UhpRSlGgDaAlDCHGbqgwhb/O/lIaUUpRoA2gJQwg+WXJDDBP2v5SGlFKUaANoCUMI6thefn378L+UhpRSlGgDaAlDCL0Y1VvV0wBAlIaUUpRoA2gJQwgGZhDGR/UCwJSGlFKUaANoCUMI8S6rFQnaE8CUhpRSlGgDaAlDCN8KuP2R2CNAlIaUUpRoA2gJQwh2N8dYR9wiwJSGlFKUaANoCUMIzfLL9g3gHkCUhpRSlGgDaAlDCKrr82DFZ+O/lIaUUpRoA2gJQwhxQWMS2THqv5SGlFKUaANoCUMIXid7DgUOJsCUhpRSlGgDaAlDCJLLXBm4GSTAlIaUUpRoA2gJQwhBnWkT6nz5v5SGlFKUaANoCUMIhmHi9Q+c7j+UhpRSlGgDaAlDCIZh4vUPnO4/lIaUUpRoA2gJQwiinNQ7kEDsP5SGlFKUaANoCUMIopzUO5BA7D+UhpRSlGgDaAlDCKKc1DuQQOw/lIaUUpRoA2gJQwiinNQ7kEDsP5SGlFKUaANoCUMIhmHi9Q+c7j+UhpRSlGgDaAlDCIZh4vUPnO4/lIaUUpRoA2gJQwiAf6xbDIv+P5SGlFKUaANoCUMIDqpQb4fY/D+UhpRSlGgDaAlDCA6qUG+H2Pw/lIaUUpRoA2gJQwgh+qUmyGQVQJSGlFKUaANoCUMIIfqlJshkFUCUhpRSlGgDaAlDCMP34/rrfBVAlIaUUpRoA2gJQwhXuLSEYCvuP5SGlFKUaANoCUMIV7i0hGAr7j+UhpRSlGgDaAlDCFe4tIRgK+4/lIaUUpRoA2gJQwjD9+P663wVQJSGlFKUaANoCUMIw/fj+ut8FUCUhpRSlGUu

$$$$
Example 5
     RDKit          3D

 47 49  0  0  0  0  0  0  0  0999 V2000
   24.7241   41.2613    2.6346 N   0  0  0  0  0  0  0  0  0  0  0  0
   25.8333   40.2945    2.6700 C   0  0  0  0  0  0  0  0  0  0  0  0
   26.9699   40.8429    3.5529 C   0  0  0  0  0  0  0  0  0  0  0  0
   27.4505   42.2668    3.1409 C   0  0  0  0  0  0  0  0  0  0  0  0
   26.3237   43.1539    2.5080 C   0  0  0  0  0  0  0  0  0  0  0  0
   25.1614   42.4028    1.8201 C   0  0  0  0  0  0  0  0  0  0  0  0
   20.0829   40.6840    5.7737 C   0  0  0  0  0  0  0  0  0  0  0  0
   20.0391   40.8338    7.1767 C   0  0  0  0  0  0  0  0  0  0  0  0
   18.8298   40.7034    7.8687 C   0  0  0  0  0  0  0  0  0  0  0  0
   17.6817   40.3910    7.1941 C   0  0  0  0  0  0  0  0  0  0  0  0
   17.6939   40.2193    5.8132 C   0  0  0  0  0  0  0  0  0  0  0  0
   18.8855   40.3853    5.1133 C   0  0  0  0  0  0  0  0  0  0  0  0
   21.3243   40.8337    4.9480 C   0  0  0  0  0  0  0  0  0  0  0  0
   21.3462   41.8381    4.0268 C   0  0  0  0  0  0  0  0  0  0  0  0
   22.4822   42.0243    3.3029 N   0  0  0  0  0  0  0  0  0  0  0  0
   23.6278   41.2327    3.4968 C   0  0  0  0  0  0  0  0  0  0  0  0
   23.5916   40.2239    4.4038 N   0  0  0  0  0  0  0  0  0  0  0  0
   22.4598   40.0202    5.1184 C   0  0  0  0  0  0  0  0  0  0  0  0
   18.6695   40.7956    9.5758 Cl  0  0  0  0  0  0  0  0  0  0  0  0
   21.4608   41.0419    8.1147 Cl  0  0  0  0  0  0  0  0  0  0  0  0
   22.4732   38.9282    5.9702 N   0  0  0  0  0  0  0  0  0  0  0  0
   28.4859   42.0190    2.0282 C   0  0  0  0  0  0  0  0  0  0  0  0
   28.1467   42.9714    4.2285 N   0  0  0  0  0  0  0  0  0  0  0  0
   25.5078   39.3196    3.0310 H   0  0  0  0  0  0  0  0  0  0  0  0
   26.1989   40.1160    1.6558 H   0  0  0  0  0  0  0  0  0  0  0  0
   27.7954   40.1259    3.5498 H   0  0  0  0  0  0  0  0  0  0  0  0
   26.6252   40.8384    4.5927 H   0  0  0  0  0  0  0  0  0  0  0  0
   26.7345   43.8649    1.7863 H   0  0  0  0  0  0  0  0  0  0  0  0
   25.8911   43.7981    3.2771 H   0  0  0  0  0  0  0  0  0  0  0  0
   24.3292   43.0802    1.6218 H   0  0  0  0  0  0  0  0  0  0  0  0
   25.4809   42.0664    0.8308 H   0  0  0  0  0  0  0  0  0  0  0  0
   16.7922   40.2785    7.7937 H   0  0  0  0  0  0  0  0  0  0  0  0
   16.5632   39.9184    5.1087 O   0  0  0  0  0  0  0  0  0  0  0  0
   18.8724   40.2684    4.0412 H   0  0  0  0  0  0  0  0  0  0  0  0
   23.3386   38.4221    6.1486 H   0  0  0  0  0  0  0  0  0  0  0  0
   21.6432   38.7023    6.4991 H   0  0  0  0  0  0  0  0  0  0  0  0
   15.3468   39.8935    5.8343 C   0  0  0  0  0  0  0  0  0  0  0  0
   14.5261   39.9323    5.1461 H   0  0  0  0  0  0  0  0  0  0  0  0
   15.2219   40.7801    6.4384 H   0  0  0  0  0  0  0  0  0  0  0  0
   15.2618   39.0000    6.4563 H   0  0  0  0  0  0  0  0  0  0  0  0
   28.9929   42.8697    1.5493 H   0  0  0  0  0  0  0  0  0  0  0  0
   28.0337   41.3963    1.2563 H   0  0  0  0  0  0  0  0  0  0  0  0
   29.2374   41.3190    2.3934 H   0  0  0  0  0  0  0  0  0  0  0  0
   28.4351   43.8848    3.9081 H   0  0  0  0  0  0  0  0  0  0  0  0
   27.5241   43.0729    5.0173 H   0  0  0  0  0  0  0  0  0  0  0  0
   28.9594   42.4405    4.5074 H   0  0  0  0  0  0  0  0  0  0  0  0
   20.4755   42.4616    3.8869 H   0  0  0  0  0  0  0  0  0  0  0  0
  1  2  1  0
  1  6  1  0
  1 16  1  0
  2  3  1  0
  2 24  1  0
  2 25  1  0
  3  4  1  0
  3 26  1  0
  3 27  1  0
  4  5  1  0
  4 22  1  0
  4 23  1  0
  5  6  1  0
  5 28  1  0
  5 29  1  0
  6 30  1  0
  6 31  1  0
  7  8  2  0
  7 12  1  0
  7 13  1  0
  8  9  1  0
  8 20  1  0
  9 10  2  0
  9 19  1  0
 10 11  1  0
 10 32  1  0
 11 12  2  0
 11 33  1  0
 12 34  1  0
 13 14  2  0
 13 18  1  0
 14 15  1  0
 14 47  1  0
 15 16  2  0
 16 17  1  0
 17 18  2  0
 18 21  1  0
 21 35  1  0
 21 36  1  0
 22 41  1  0
 22 42  1  0
 22 43  1  0
 23 44  1  0
 23 45  1  0
 23 46  1  0
 33 37  1  0
 37 38  1  0
 37 39  1  0
 37 40  1  0
M  CHG  1  23   1
M  END
>  <ID>  (15) 
Example 5

>  <IC50 uM>  (15) 
2.859

>  <atom.dprop.PartialCharge>  (15) 
-0.78656024 0.20591423 -0.1145874 0.13722044 -0.1145874 0.20591423 0.068773374 -0.020151757 0.06478373 -0.1798979 0.15556529 -0.17216277 -0.38672465 0.50329876 -0.71163714 0.90373296 -0.77271074 0.74067914 -0.07183038 -0.067816995 -0.93484455 -0.13090748 -0.8512311 0.066236965 0.066236965 0.07587072 0.07587072 0.07587072 0.07587072 0.066236965 0.066236965 0.16094384 -0.31145418 0.16214709 0.4325411 0.4325411 0.11704089 0.050342374 0.050342374 0.050342374 0.07811087 0.07811087 0.07811087 0.45100558 0.45100558 0.45100558 0.029200992

>  <experimental dG reference units>  (15) 
uM

>  <experimental dG reference field>  (15) 
IC50 uM

>  <kJ/mol experimental dG>  (15) 
-31.840517079505272

>  <kcal/mol experimental dG>  (15) 
-7.610066223591126

>  <AmberAM1BCCCache>  (15) 
gASV2AMAAAAAAABdlCiMFm51bXB5Ll9jb3JlLm11bHRpYXJyYXmUjAZzY2FsYXKUk5SMBW51bXB5lIwFZHR5cGWUk5SMAmY4lImIh5RSlChLA4wBPJROTk5K/////0r/////SwB0lGJDCEFn5qzduyHAlIaUUpRoA2gJQwiUVgGIB2kDQJSGlFKUaANoCUMIVp44pQd59b+UhpRSlGgDaAlDCKP0wVXv1/0/lIaUUpRoA2gJQwhWnjilB3n1v5SGlFKUaANoCUMIlFYBiAdpA0CUhpRSlGgDaAlDCE1aKwzFL8U/lIaUUpRoA2gJQwjGWg0fX87Xv5SGlFKUaANoCUMI8AiulqOq5T+UhpRSlGgDaAlDCFFjH3nYGQLAlIaUUpRoA2gJQwhBlLJ4v4/7P5SGlFKUaANoCUMIybeLYWqV+r+UhpRSlGgDaAlDCHpInzppVBHAlIaUUpRoA2gJQwiY4LEBaOoXQJSGlFKUaANoCUMI1ICDP9M+IsCUhpRSlGgDaAlDCCKyjvruEiVAlIaUUpRoA2gJQwh1ZGsygWAjwJSGlFKUaANoCUMIcWJgv5mdIUCUhpRSlGgDaAlDCLyL5wUSX+O/lIaUUpRoA2gJQwgkxT6q00rrv5SGlFKUaANoCUMI010nl68xJsCUhpRSlGgDaAlDCElt42WQePm/lIaUUpRoA2gJQwhkBMvNPiUkwJSGlFKUaANoCUMIMuDIifFq7T+UhpRSlGgDaAlDCDLgyInxau0/lIaUUpRoA2gJQwiSFjd4uT/rP5SGlFKUaANoCUMIkhY3eLk/6z+UhpRSlGgDaAlDCJIWN3i5P+s/lIaUUpRoA2gJQwiSFjd4uT/rP5SGlFKUaANoCUMIMuDIifFq7T+UhpRSlGgDaAlDCDLgyInxau0/lIaUUpRoA2gJQwhIoaYCPSD/P5SGlFKUaANoCUMI3GwC9BD5DcCUhpRSlGgDaAlDCL2qrrGtv/4/lIaUUpRoA2gJQwjCkPBWPfkUQJSGlFKUaANoCUMIwpDwVj35FECUhpRSlGgDaAlDCLLeyEEUgvQ/lIaUUpRoA2gJQwiHxUseXkXkP5SGlFKUaANoCUMIh8VLHl5F5D+UhpRSlGgDaAlDCIfFSx5eReQ/lIaUUpRoA2gJQwgwYRQTAnbvP5SGlFKUaANoCUMIMGEUEwJ27z+UhpRSlGgDaAlDCDBhFBMCdu8/lIaUUpRoA2gJQwjcux2L620VQJSGlFKUaANoCUMI3Lsdi+ttFUCUhpRSlGgDaAlDCNy7HYvrbRVAlIaUUpRoA2gJQwgPAFIZjMrfP5SGlFKUZS4=

$$$$
3
     RDKit          3D

 43 45  0  0  0  0  0  0  0  0999 V2000
   24.6991   41.2880    3.1084 N   0  0  0  0  0  0  0  0  0  0  0  0
   24.7544   42.3659    2.0828 C   0  0  0  0  0  0  0  0  0  0  0  0
   26.0819   43.1849    2.0777 C   0  0  1  0  0  0  0  0  0  0  0  0
   27.2540   42.3327    2.4127 N   0  0  0  0  0  0  0  0  0  0  0  0
   27.1216   41.4947    3.6356 C   0  0  1  0  0  0  0  0  0  0  0  0
   25.9265   40.5256    3.4438 C   0  0  0  0  0  0  0  0  0  0  0  0
   19.7062   40.2071    5.4923 C   0  0  0  0  0  0  0  0  0  0  0  0
   19.4758   40.5221    6.8291 C   0  0  0  0  0  0  0  0  0  0  0  0
   18.1971   40.3798    7.3797 C   0  0  0  0  0  0  0  0  0  0  0  0
   17.1161   39.9866    6.5815 C   0  0  0  0  0  0  0  0  0  0  0  0
   17.3356   39.6937    5.2208 C   0  0  0  0  0  0  0  0  0  0  0  0
   18.6213   39.8380    4.6722 C   0  0  0  0  0  0  0  0  0  0  0  0
   21.0642   40.4372    4.9252 C   0  0  0  0  0  0  0  0  0  0  0  0
   21.1830   41.4378    3.9557 C   0  0  0  0  0  0  0  0  0  0  0  0
   22.3711   41.6614    3.3749 N   0  0  0  0  0  0  0  0  0  0  0  0
   23.5007   40.9783    3.7010 C   0  0  0  0  0  0  0  0  0  0  0  0
   23.3990   40.0008    4.6377 N   0  0  0  0  0  0  0  0  0  0  0  0
   22.2307   39.6970    5.2474 C   0  0  0  0  0  0  0  0  0  0  0  0
   17.9435   40.7315    9.0488 Cl  0  0  0  0  0  0  0  0  0  0  0  0
   22.2237   38.6160    6.2287 N   0  0  0  0  0  0  0  0  0  0  0  0
   26.2804   43.8709    0.7586 C   0  0  0  0  0  0  0  0  0  0  0  0
   28.3857   40.7218    3.8695 C   0  0  0  0  0  0  0  0  0  0  0  0
   23.9259   43.0694    2.1825 H   0  0  0  0  0  0  0  0  0  0  0  0
   24.6132   41.8868    1.1127 H   0  0  0  0  0  0  0  0  0  0  0  0
   26.0127   43.9717    2.8313 H   0  0  0  0  0  0  0  0  0  0  0  0
   28.0687   42.9223    2.5049 H   0  0  0  0  0  0  0  0  0  0  0  0
   26.9651   42.1292    4.5101 H   0  0  0  0  0  0  0  0  0  0  0  0
   25.8054   39.9380    4.3555 H   0  0  0  0  0  0  0  0  0  0  0  0
   26.1226   39.8073    2.6466 H   0  0  0  0  0  0  0  0  0  0  0  0
   20.2827   40.8574    7.4643 H   0  0  0  0  0  0  0  0  0  0  0  0
   16.1290   39.8927    7.0109 H   0  0  0  0  0  0  0  0  0  0  0  0
   16.5100   39.3854    4.5956 H   0  0  0  0  0  0  0  0  0  0  0  0
   18.7705   39.6319    3.6214 H   0  0  0  0  0  0  0  0  0  0  0  0
   20.3445   42.0389    3.6351 H   0  0  0  0  0  0  0  0  0  0  0  0
   21.3657   38.3671    6.6998 H   0  0  0  0  0  0  0  0  0  0  0  0
   23.0769   38.1169    6.4362 H   0  0  0  0  0  0  0  0  0  0  0  0
   25.4101   44.4881    0.5355 H   0  0  0  0  0  0  0  0  0  0  0  0
   26.4059   43.1231   -0.0245 H   0  0  0  0  0  0  0  0  0  0  0  0
   27.1694   44.4998    0.8062 H   0  0  0  0  0  0  0  0  0  0  0  0
   28.2781   40.1120    4.7665 H   0  0  0  0  0  0  0  0  0  0  0  0
   29.2168   41.4151    3.9991 H   0  0  0  0  0  0  0  0  0  0  0  0
   28.5810   40.0767    3.0129 H   0  0  0  0  0  0  0  0  0  0  0  0
   27.3962   41.7024    1.6368 H   0  0  0  0  0  0  0  0  0  0  0  0
  1  2  1  0
  1  6  1  0
  1 16  1  0
  2  3  1  0
  2 23  1  0
  2 24  1  0
  3  4  1  0
  3 21  1  0
  3 25  1  1
  4  5  1  0
  4 26  1  0
  4 43  1  0
  5  6  1  0
  5 22  1  0
  5 27  1  1
  6 28  1  0
  6 29  1  0
  7  8  2  0
  7 12  1  0
  7 13  1  0
  8  9  1  0
  8 30  1  0
  9 10  2  0
  9 19  1  0
 10 11  1  0
 10 31  1  0
 11 12  2  0
 11 32  1  0
 12 33  1  0
 13 14  2  0
 13 18  1  0
 14 15  1  0
 14 34  1  0
 15 16  2  0
 16 17  1  0
 17 18  2  0
 18 20  1  0
 20 35  1  0
 20 36  1  0
 21 37  1  0
 21 38  1  0
 21 39  1  0
 22 40  1  0
 22 41  1  0
 22 42  1  0
M  CHG  1   4   1
M  END
>  <ID>  (16) 
3

>  <IC50 uM>  (16) 
99

>  <atom.dprop.PartialCharge>  (16) 
-0.78134567 0.19116537 0.11954695 -0.77763456 0.11954695 0.19116537 0.01795261 -0.117834434 0.033709817 -0.11453797 -0.113020666 -0.1257875 -0.36630437 0.52468324 -0.749502 0.8721741 -0.78362536 0.7536559 -0.09052755 -0.9329639 -0.13125473 -0.13125473 0.07871739 0.07871739 0.10964422 0.4466323 0.10964422 0.07871739 0.07871739 0.15409957 0.15470585 0.14354274 0.14403188 0.032057896 0.43301213 0.43301213 0.07835131 0.07835131 0.07835131 0.07835131 0.07835131 0.07835131 0.4466323

>  <experimental dG reference units>  (16) 
uM

>  <experimental dG reference field>  (16) 
IC50 uM

>  <kJ/mol experimental dG>  (16) 
-22.998912575638983

>  <kcal/mol experimental dG>  (16) 
-5.496872030506449

>  <AmberAM1BCCCache>  (16) 
gASVjAMAAAAAAABdlCiMFm51bXB5Ll9jb3JlLm11bHRpYXJyYXmUjAZzY2FsYXKUk5SMBW51bXB5lIwFZHR5cGWUk5SMAmY4lImIh5RSlChLA4wBPJROTk5K/////0r/////SwB0lGJDCB9zUbQfbCHAlIaUUpRoA2gJQwh0B3dhS9AAQJSGlFKUaANoCUMIxTvCz2ir9z+UhpRSlGgDaAlDCJjpf03EDiLAlIaUUpRoA2gJQwjFO8LPaKv3P5SGlFKUaANoCUMIdAd3YUvQAECUhpRSlGgDaAlDCOcFu9zdSNy/lIaUUpRoA2gJQwi9PeVuK4n2v5SGlFKUaANoCUMIashsWLnmzD+UhpRSlGgDaAlDCKhqS66CvvS/lIaUUpRoA2gJQwinUPXMDMj1v5SGlFKUaANoCUMIABJgRcJH+L+UhpRSlGgDaAlDCHHrThlDQhDAlIaUUpRoA2gJQwgM5BLqR3QXQJSGlFKUaANoCUMItSgXvdEXIsCUhpRSlGgDaAlDCHyV1ExGxyRAlIaUUpRoA2gJQwhYqCcmPGIjwJSGlFKUaANoCUMINmHefLaAIUCUhpRSlGgDaAlDCMwMC5XzBeu/lIaUUpRoA2gJQwgtOmm/XIAmwJSGlFKUaANoCUMIIbhKLdHH97+UhpRSlGgDaAlDCCG4Si3Rx/e/lIaUUpRoA2gJQwiHE061RBvxP5SGlFKUaANoCUMIhxNOtUQb8T+UhpRSlGgDaAlDCG3ysVA6bfI/lIaUUpRoA2gJQwjhZQl2dhUVQJSGlFKUaANoCUMIbfKxUDpt8j+UhpRSlGgDaAlDCIcTTrVEG/E/lIaUUpRoA2gJQwiHE061RBvxP5SGlFKUaANoCUMIAsI6Ap6G/D+UhpRSlGgDaAlDCF2d+1vJ/P0/lIaUUpRoA2gJQwgy0MYIx/X7P5SGlFKUaANoCUMIHPCBV+Ov+j+UhpRSlGgDaAlDCOmUfpE/lOE/lIaUUpRoA2gJQwiP4JQTx0sVQJSGlFKUaANoCUMIj+CUE8dLFUCUhpRSlGgDaAlDCL77AfhoFO4/lIaUUpRoA2gJQwi++wH4aBTuP5SGlFKUaANoCUMIvvsB+GgU7j+UhpRSlGgDaAlDCL77AfhoFO4/lIaUUpRoA2gJQwi++wH4aBTuP5SGlFKUaANoCUMIvvsB+GgU7j+UhpRSlGgDaAlDCOFlCXZ2FRVAlIaUUpRlLg==

$$$$
Example 28
     RDKit          3D

 47 50  0  0  0  0  0  0  0  0999 V2000
   24.5514   41.4004    2.9329 N   0  0  0  0  0  0  0  0  0  0  0  0
   24.8291   42.5878    2.0978 C   0  0  0  0  0  0  0  0  0  0  0  0
   25.9013   43.4869    2.7358 C   0  0  0  0  0  0  0  0  0  0  0  0
   27.2025   42.7130    3.0211 C   0  0  0  0  0  0  0  0  0  0  0  0
   26.8895   41.4079    3.7802 C   0  0  0  0  0  0  0  0  0  0  0  0
   25.7697   40.5859    3.1067 C   0  0  0  0  0  0  0  0  0  0  0  0
   19.6794   40.5104    5.5019 C   0  0  0  0  0  0  0  0  0  0  0  0
   18.6195   40.0391    4.7203 C   0  0  0  0  0  0  0  0  0  0  0  0
   17.3223   39.7888    5.2688 C   0  0  0  0  0  0  0  0  0  0  0  0
   17.0983   40.0475    6.6166 C   0  0  0  0  0  0  0  0  0  0  0  0
   18.1375   40.5477    7.3749 C   0  0  0  0  0  0  0  0  0  0  0  0
   19.4091   40.7389    6.8493 C   0  0  0  0  0  0  0  0  0  0  0  0
   21.0201   40.7305    4.9348 C   0  0  0  0  0  0  0  0  0  0  0  0
   21.0640   41.7682    4.0714 N   0  0  0  0  0  0  0  0  0  0  0  0
   22.2386   42.0088    3.4485 C   0  0  0  0  0  0  0  0  0  0  0  0
   23.3718   41.2305    3.6715 C   0  0  0  0  0  0  0  0  0  0  0  0
   23.3249   40.1985    4.5693 N   0  0  0  0  0  0  0  0  0  0  0  0
   22.1491   39.9575    5.2053 C   0  0  0  0  0  0  0  0  0  0  0  0
   22.1311   38.8990    6.1150 N   0  0  0  0  0  0  0  0  0  0  0  0
   28.0744   43.6010    3.9172 N   0  0  0  0  0  0  0  0  0  0  0  0
   27.9821   42.4323    1.7232 C   0  0  0  0  0  0  0  0  0  0  0  0
   16.5080   39.3055    4.2140 C   0  0  0  0  0  0  0  0  0  0  0  0
   17.2883   39.3122    3.1020 C   0  0  0  0  0  0  0  0  0  0  0  0
   18.5615   39.7270    3.3961 N   0  0  0  0  0  0  0  0  0  0  0  0
   25.1019   42.2746    1.0887 H   0  0  0  0  0  0  0  0  0  0  0  0
   23.9645   43.2246    1.9476 H   0  0  0  0  0  0  0  0  0  0  0  0
   25.4768   43.9409    3.6329 H   0  0  0  0  0  0  0  0  0  0  0  0
   26.0940   44.3339    2.0744 H   0  0  0  0  0  0  0  0  0  0  0  0
   26.5661   41.6170    4.7921 H   0  0  0  0  0  0  0  0  0  0  0  0
   27.7871   40.7997    3.8883 H   0  0  0  0  0  0  0  0  0  0  0  0
   26.1030   40.2012    2.1409 H   0  0  0  0  0  0  0  0  0  0  0  0
   25.5830   39.6922    3.7042 H   0  0  0  0  0  0  0  0  0  0  0  0
   16.1261   39.8633    7.0481 H   0  0  0  0  0  0  0  0  0  0  0  0
   17.9366   40.7977    8.3897 H   0  0  0  0  0  0  0  0  0  0  0  0
   20.2028   41.0754    7.4958 H   0  0  0  0  0  0  0  0  0  0  0  0
   22.1832   42.8209    2.7432 H   0  0  0  0  0  0  0  0  0  0  0  0
   21.2808   38.6923    6.6167 H   0  0  0  0  0  0  0  0  0  0  0  0
   22.9874   38.3835    6.2927 H   0  0  0  0  0  0  0  0  0  0  0  0
   28.9438   43.1329    4.1367 H   0  0  0  0  0  0  0  0  0  0  0  0
   28.2765   44.4608    3.4084 H   0  0  0  0  0  0  0  0  0  0  0  0
   27.4273   41.7698    1.0576 H   0  0  0  0  0  0  0  0  0  0  0  0
   28.9404   41.9534    1.9312 H   0  0  0  0  0  0  0  0  0  0  0  0
   28.1739   43.3532    1.1710 H   0  0  0  0  0  0  0  0  0  0  0  0
   15.4567   39.0511    4.2584 H   0  0  0  0  0  0  0  0  0  0  0  0
   17.0853   39.1306    2.0660 H   0  0  0  0  0  0  0  0  0  0  0  0
   19.2785   39.8207    2.6938 H   0  0  0  0  0  0  0  0  0  0  0  0
   27.6026   43.8497    4.7761 H   0  0  0  0  0  0  0  0  0  0  0  0
  1  2  1  0
  1  6  1  0
  1 16  1  0
  2  3  1  0
  2 25  1  0
  2 26  1  0
  3  4  1  0
  3 27  1  0
  3 28  1  0
  4  5  1  0
  4 20  1  0
  4 21  1  0
  5  6  1  0
  5 29  1  0
  5 30  1  0
  6 31  1  0
  6 32  1  0
  7  8  2  0
  7 12  1  0
  7 13  1  0
  8  9  1  0
  8 24  1  0
  9 10  2  0
  9 22  1  0
 10 11  1  0
 10 33  1  0
 11 12  2  0
 11 34  1  0
 12 35  1  0
 13 14  2  0
 13 18  1  0
 14 15  1  0
 15 16  2  0
 15 36  1  0
 16 17  1  0
 17 18  2  0
 18 19  1  0
 19 37  1  0
 19 38  1  0
 20 39  1  0
 20 40  1  0
 20 47  1  0
 21 41  1  0
 21 42  1  0
 21 43  1  0
 22 23  2  0
 22 44  1  0
 23 24  1  0
 23 45  1  0
 24 46  1  0
M  CHG  1  20   1
M  END
>  <ID>  (17) 
Example 28

>  <IC50 uM>  (17) 
0.63200000000000001

>  <atom.dprop.PartialCharge>  (17) 
-0.7691776 0.18559615 -0.11606924 0.13664344 -0.11606924 0.18559615 -0.108788595 0.07505815 -0.08911446 -0.07047764 -0.15792426 -0.09573471 0.26332048 -0.59705657 0.2885595 0.52524084 -0.7040663 0.5903034 -0.92647105 -0.85331607 -0.13289627 -0.18903783 0.000921011 -0.56120974 0.062181026 0.062181026 0.074650206 0.074650206 0.074650206 0.074650206 0.062181026 0.062181026 0.14022586 0.13577706 0.14261878 0.034811437 0.43597248 0.43597248 0.4496477 0.4496477 0.07675302 0.07675302 0.07675302 0.16126843 0.16721222 0.45578417 0.4496477

>  <experimental dG reference units>  (17) 
uM

>  <experimental dG reference field>  (17) 
IC50 uM

>  <kJ/mol experimental dG>  (17) 
-35.60533889316957

>  <kcal/mol experimental dG>  (17) 
-8.509880232593108

>  <AmberAM1BCCCache>  (17) 
gASV2AMAAAAAAABdlCiMFm51bXB5Ll9jb3JlLm11bHRpYXJyYXmUjAZzY2FsYXKUk5SMBW51bXB5lIwFZHR5cGWUk5SMAmY4lImIh5RSlChLA4wBPJROTk5K/////0r/////SwB0lGJDCOM1q+zQBiHAlIaUUpRoA2gJQwgwpeJyHMUAQJSGlFKUaANoCUMItq3ISabe87+UhpRSlGgDaAlDCBglqE6J5vw/lIaUUpRoA2gJQwi2rchJpt7zv5SGlFKUaANoCUMIMKXichzFAECUhpRSlGgDaAlDCKRopZ/LZAHAlIaUUpRoA2gJQwgyKJn9aN7Gv5SGlFKUaANoCUMIUjNjiwCg8r+UhpRSlGgDaAlDCONODvxc3OW/lIaUUpRoA2gJQwjDKFWSaUz/v5SGlFKUaANoCUMI2GBeIvDZ8r+UhpRSlGgDaAlDCGjtow7iOQ5AlIaUUpRoA2gJQwhUSgJjZz0cwJSGlFKUaANoCUMIzdzDqVe4BkCUhpRSlGgDaAlDCGm9Hsg5hhdAlIaUUpRoA2gJQwiYxjDbTOQhwJSGlFKUaANoCUMI7VhphCyIG0CUhpRSlGgDaAlDCCKazIO4NybAlIaUUpRoA2gJQwjhQVHQNR8kwJSGlFKUaANoCUMIvk8Ny9eo+b+UhpRSlGgDaAlDCCMRUrO2zADAlIaUUpRoA2gJQwhU4glkKtDzv5SGlFKUaANoCUMIFJwFpGFiAcCUhpRSlGgDaAlDCExPIYJO9+o/lIaUUpRoA2gJQwhMTyGCTvfqP5SGlFKUaANoCUMI70xfVnIP6z+UhpRSlGgDaAlDCO9MX1ZyD+s/lIaUUpRoA2gJQwjvTF9Wcg/rP5SGlFKUaANoCUMI70xfVnIP6z+UhpRSlGgDaAlDCExPIYJO9+o/lIaUUpRoA2gJQwhMTyGCTvfqP5SGlFKUaANoCUMIqhhJHKRa+z+UhpRSlGgDaAlDCAo1YSn2OPo/lIaUUpRoA2gJQwjFOeWArgj6P5SGlFKUaANoCUMIEpzKQDGH3T+UhpRSlGgDaAlDCOAcKtXjvBRAlIaUUpRoA2gJQwjgHCrV47wUQJSGlFKUaANoCUMIJAv7jPBxFUCUhpRSlGgDaAlDCCQL+4zwcRVAlIaUUpRoA2gJQwgxr9CmVFTuP5SGlFKUaANoCUMIMa/QplRU7j+UhpRSlGgDaAlDCDGv0KZUVO4/lIaUUpRoA2gJQwgZuvhFPSD/P5SGlFKUaANoCUMI3U5wnPUgAECUhpRSlGgDaAlDCLquxe1UpAxAlIaUUpRoA2gJQwgkC/uM8HEVQJSGlFKUZS4=

$$$$
Example 24
     RDKit          3D

 46 48  0  0  0  0  0  0  0  0999 V2000
   24.6100   41.5762    3.1805 N   0  0  0  0  0  0  0  0  0  0  0  0
   25.1012   42.9418    2.9241 C   0  0  0  0  0  0  0  0  0  0  0  0
   26.5271   43.2119    3.4404 C   0  0  0  0  0  0  0  0  0  0  0  0
   27.5120   42.1773    2.8862 C   0  0  0  0  0  0  0  0  0  0  0  0
   27.0075   40.8187    3.4015 C   0  0  0  0  0  0  0  0  0  0  0  0
   25.5915   40.5142    2.8619 C   0  0  0  0  0  0  0  0  0  0  0  0
   19.6895   40.5804    5.6954 C   0  0  0  0  0  0  0  0  0  0  0  0
   19.5253   40.8623    7.0657 C   0  0  0  0  0  0  0  0  0  0  0  0
   18.3098   40.5691    7.7016 C   0  0  0  0  0  0  0  0  0  0  0  0
   17.2585   40.0212    6.9710 C   0  0  0  0  0  0  0  0  0  0  0  0
   17.4135   39.7425    5.6150 C   0  0  0  0  0  0  0  0  0  0  0  0
   18.6218   40.0211    4.9824 C   0  0  0  0  0  0  0  0  0  0  0  0
   20.9859   40.8084    5.0038 C   0  0  0  0  0  0  0  0  0  0  0  0
   20.9938   41.7637    4.0398 N   0  0  0  0  0  0  0  0  0  0  0  0
   22.1560   42.0156    3.3787 C   0  0  0  0  0  0  0  0  0  0  0  0
   23.3435   41.3173    3.7063 C   0  0  0  0  0  0  0  0  0  0  0  0
   23.3074   40.3369    4.6515 N   0  0  0  0  0  0  0  0  0  0  0  0
   22.1430   40.0739    5.2861 C   0  0  0  0  0  0  0  0  0  0  0  0
   18.0795   40.8700    9.3883 Cl  0  0  0  0  0  0  0  0  0  0  0  0
   20.8043   41.6192    7.9628 Cl  0  0  0  0  0  0  0  0  0  0  0  0
   22.1461   39.0394    6.2158 N   0  0  0  0  0  0  0  0  0  0  0  0
   28.8772   42.4513    3.5251 N   0  0  0  0  0  0  0  0  0  0  0  0
   27.7125   42.2524    1.3549 C   0  0  0  0  0  0  0  0  0  0  0  0
   25.0251   43.1641    1.8595 H   0  0  0  0  0  0  0  0  0  0  0  0
   24.4482   43.6227    3.4588 H   0  0  0  0  0  0  0  0  0  0  0  0
   26.5072   43.2143    4.5307 H   0  0  0  0  0  0  0  0  0  0  0  0
   26.8355   44.2201    3.1804 H   0  0  0  0  0  0  0  0  0  0  0  0
   26.9672   40.7880    4.4945 H   0  0  0  0  0  0  0  0  0  0  0  0
   27.6964   40.0229    3.1443 H   0  0  0  0  0  0  0  0  0  0  0  0
   25.6085   40.3843    1.7784 H   0  0  0  0  0  0  0  0  0  0  0  0
   25.2756   39.5545    3.2675 H   0  0  0  0  0  0  0  0  0  0  0  0
   16.3244   39.7869    7.4634 H   0  0  0  0  0  0  0  0  0  0  0  0
   18.7352   39.7751    3.9346 H   0  0  0  0  0  0  0  0  0  0  0  0
   21.9938   42.9789    2.2034 C   0  0  0  0  0  0  0  0  0  0  0  0
   23.0100   38.5389    6.4063 H   0  0  0  0  0  0  0  0  0  0  0  0
   21.2983   38.8233    6.7146 H   0  0  0  0  0  0  0  0  0  0  0  0
   29.5591   41.7753    3.1813 H   0  0  0  0  0  0  0  0  0  0  0  0
   26.7880   42.0817    0.8050 H   0  0  0  0  0  0  0  0  0  0  0  0
   28.4324   41.5072    1.0133 H   0  0  0  0  0  0  0  0  0  0  0  0
   28.0791   43.2320    1.0448 H   0  0  0  0  0  0  0  0  0  0  0  0
   29.1960   43.3780    3.2760 H   0  0  0  0  0  0  0  0  0  0  0  0
   16.6052   39.2945    5.0545 H   0  0  0  0  0  0  0  0  0  0  0  0
   21.2382   43.7363    2.4123 H   0  0  0  0  0  0  0  0  0  0  0  0
   21.6793   42.4241    1.3190 H   0  0  0  0  0  0  0  0  0  0  0  0
   22.8897   43.5171    1.9214 H   0  0  0  0  0  0  0  0  0  0  0  0
   28.8262   42.3954    4.5336 H   0  0  0  0  0  0  0  0  0  0  0  0
  1  2  1  0
  1  6  1  0
  1 16  1  0
  2  3  1  0
  2 24  1  0
  2 25  1  0
  3  4  1  0
  3 26  1  0
  3 27  1  0
  4  5  1  0
  4 22  1  0
  4 23  1  0
  5  6  1  0
  5 28  1  0
  5 29  1  0
  6 30  1  0
  6 31  1  0
  7  8  2  0
  7 12  1  0
  7 13  1  0
  8  9  1  0
  8 20  1  0
  9 10  2  0
  9 19  1  0
 10 11  1  0
 10 32  1  0
 11 12  2  0
 11 42  1  0
 12 33  1  0
 13 14  2  0
 13 18  1  0
 14 15  1  0
 15 16  2  0
 15 34  1  0
 16 17  1  0
 17 18  2  0
 18 21  1  0
 21 35  1  0
 21 36  1  0
 22 37  1  0
 22 41  1  0
 22 46  1  0
 23 38  1  0
 23 39  1  0
 23 40  1  0
 34 43  1  0
 34 44  1  0
 34 45  1  0
M  CHG  1  22   1
M  END
>  <ID>  (18) 
Example 24

>  <IC50 uM>  (18) 
0.222

>  <atom.dprop.PartialCharge>  (18) 
-0.76155543 0.18161473 -0.11297291 0.13715197 -0.11297291 0.18161473 -0.08720569 0.013532031 0.027120775 -0.10045072 -0.11656034 -0.11769579 0.29227397 -0.58701885 0.28244525 0.5118148 -0.6968543 0.582526 -0.06546663 -0.06143107 -0.9289215 -0.85139644 -0.13097681 0.06331969 0.06331969 0.0759524 0.0759524 0.0759524 0.0759524 0.06331969 0.06331969 0.15765408 0.15284136 -0.13634907 0.43814534 0.43814534 0.45156714 0.07867241 0.07867241 0.07867241 0.45156714 0.14611344 0.059009265 0.059009265 0.059009265 0.45156714

>  <experimental dG reference units>  (18) 
uM

>  <experimental dG reference field>  (18) 
IC50 uM

>  <kJ/mol experimental dG>  (18) 
-38.21496134500925

>  <kcal/mol experimental dG>  (18) 
-9.133594967736435

>  <AmberAM1BCCCache>  (18) 
gASVxQMAAAAAAABdlCiMFm51bXB5Ll9jb3JlLm11bHRpYXJyYXmUjAZzY2FsYXKUk5SMBW51bXB5lIwFZHR5cGWUk5SMAmY4lImIh5RSlChLA4wBPJROTk5K/////0r/////SwB0lGJDCJEzca7ayiDAlIaUUpRoA2gJQwgF2W5/cAIAQJSGlFKUaANoCUMI+HIWcFWZ87+UhpRSlGgDaAlDCO5moKtu4/w/lIaUUpRoA2gJQwj4chZwVZnzv5SGlFKUaANoCUMIBdluf3ACAECUhpRSlGgDaAlDCDtkh0QZUPq/lIaUUpRoA2gJQwiWU3H2cLHFP5SGlFKUaANoCUMI7gcxfuu1yD+UhpRSlGgDaAlDCI0VXhaaPfO/lIaUUpRoA2gJQwigzqH1zBH2v5SGlFKUaANoCUMI8GUi5tcI8L+UhpRSlGgDaAlDCA0TpBQNCA5AlIaUUpRoA2gJQwjHTNRpD30bwJSGlFKUaANoCUMIfL5eEipHC0CUhpRSlGgDaAlDCMjgbH1UxBZAlIaUUpRoA2gJQwjpwTRxesAhwJSGlFKUaANoCUMIqnHOdOgyG0CUhpRSlGgDaAlDCOPfWnS3BOO/lIaUUpRoA2gJQwi/IrrH6Y/qv5SGlFKUaANoCUMIxBpFfJXdJcCUhpRSlGgDaAlDCKY5siSZHyTAlIaUUpRoA2gJQwjoDRVu8qv5v5SGlFKUaANoCUMI+NIRPBnx6j+UhpRSlGgDaAlDCPjSETwZ8eo/lIaUUpRoA2gJQwhV1dNn9djqP5SGlFKUaANoCUMIVdXTZ/XY6j+UhpRSlGgDaAlDCFXV02f12Oo/lIaUUpRoA2gJQwhV1dNn9djqP5SGlFKUaANoCUMI+NIRPBnx6j+UhpRSlGgDaAlDCPjSETwZ8eo/lIaUUpRoA2gJQwgfCn2pS4z+P5SGlFKUaANoCUMIrTQhvcbZ/D+UhpRSlGgDaAlDCE4NgBZap/e/lIaUUpRoA2gJQwgztn/QlmEUQJSGlFKUaANoCUMIM7Z/0JZhFECUhpRSlGgDaAlDCIZSMPMkbRVAlIaUUpRoA2gJQwh9ewfpRm7uP5SGlFKUaANoCUMIfXsH6UZu7j+UhpRSlGgDaAlDCH17B+lGbu4/lIaUUpRoA2gJQwiGUjDzJG0VQJSGlFKUaANoCUMIrTQhvcbZ/D+UhpRSlGgDaAlDCGBx2K+4n+Q/lIaUUpRoA2gJQwhgcdivuJ/kP5SGlFKUaANoCUMIYHHYr7if5D+UhpRSlGgDaAlDCIZSMPMkbRVAlIaUUpRlLg==

$$$$
Example 4
     RDKit          3D

 43 45  0  0  0  0  0  0  0  0999 V2000
   24.5430   41.4114    2.9550 N   0  0  0  0  0  0  0  0  0  0  0  0
   25.7642   40.5993    3.0891 C   0  0  0  0  0  0  0  0  0  0  0  0
   26.8786   41.4166    3.7666 C   0  0  0  0  0  0  0  0  0  0  0  0
   27.2006   42.7127    3.0029 C   0  0  0  0  0  0  0  0  0  0  0  0
   25.8937   43.4892    2.7374 C   0  0  0  0  0  0  0  0  0  0  0  0
   24.8050   42.5910    2.1109 C   0  0  0  0  0  0  0  0  0  0  0  0
   21.0144   40.7174    4.9510 C   0  0  0  0  0  0  0  0  0  0  0  0
   21.1677   41.7795    4.0783 C   0  0  0  0  0  0  0  0  0  0  0  0
   22.3249   42.0375    3.4270 N   0  0  0  0  0  0  0  0  0  0  0  0
   23.3661   41.2020    3.6845 C   0  0  0  0  0  0  0  0  0  0  0  0
   23.3235   40.1654    4.5608 N   0  0  0  0  0  0  0  0  0  0  0  0
   22.1453   39.9248    5.1862 C   0  0  0  0  0  0  0  0  0  0  0  0
   22.0944   38.8546    6.0735 N   0  0  0  0  0  0  0  0  0  0  0  0
   28.0809   43.5947    3.9100 N   0  0  0  0  0  0  0  0  0  0  0  0
   27.9740   42.4207    1.6938 C   0  0  0  0  0  0  0  0  0  0  0  0
   26.0828   40.2778    2.0962 H   0  0  0  0  0  0  0  0  0  0  0  0
   25.5977   39.6787    3.6476 H   0  0  0  0  0  0  0  0  0  0  0  0
   26.5281   41.6511    4.7617 H   0  0  0  0  0  0  0  0  0  0  0  0
   27.7693   40.8029    3.8916 H   0  0  0  0  0  0  0  0  0  0  0  0
   25.4814   43.9202    3.6497 H   0  0  0  0  0  0  0  0  0  0  0  0
   26.0840   44.3456    2.0896 H   0  0  0  0  0  0  0  0  0  0  0  0
   25.0984   42.2408    1.1213 H   0  0  0  0  0  0  0  0  0  0  0  0
   23.9190   43.2070    1.9498 H   0  0  0  0  0  0  0  0  0  0  0  0
   28.9707   43.1542    4.0991 H   0  0  0  0  0  0  0  0  0  0  0  0
   28.8895   41.8542    1.8809 H   0  0  0  0  0  0  0  0  0  0  0  0
   28.2450   43.3369    1.1662 H   0  0  0  0  0  0  0  0  0  0  0  0
   27.3855   41.8245    0.9924 H   0  0  0  0  0  0  0  0  0  0  0  0
   28.2454   44.4799    3.4324 H   0  0  0  0  0  0  0  0  0  0  0  0
   22.9535   38.3533    6.2811 H   0  0  0  0  0  0  0  0  0  0  0  0
   20.3465   42.4591    3.9019 H   0  0  0  0  0  0  0  0  0  0  0  0
   21.2404   38.6627    6.5726 H   0  0  0  0  0  0  0  0  0  0  0  0
   19.7006   40.4765    5.5478 C   0  0  0  0  0  0  0  0  0  0  0  0
   18.5441   40.0185    4.9425 C   0  0  0  0  0  0  0  0  0  0  0  0
   17.4703   39.9918    5.8252 C   0  0  0  0  0  0  0  0  0  0  0  0
   17.7949   40.4352    7.0994 C   0  0  0  0  0  0  0  0  0  0  0  0
   19.4745   40.8098    7.2203 S   0  0  0  0  0  0  0  0  0  0  0  0
   18.4766   39.7097    3.9112 H   0  0  0  0  0  0  0  0  0  0  0  0
   16.4831   39.6652    5.5342 H   0  0  0  0  0  0  0  0  0  0  0  0
   16.9032   40.6023    8.2756 C   0  0  0  0  0  0  0  0  0  0  0  0
   16.7941   41.6460    8.5777 H   0  0  0  0  0  0  0  0  0  0  0  0
   17.2872   40.0431    9.1251 H   0  0  0  0  0  0  0  0  0  0  0  0
   15.9194   40.2081    8.0272 H   0  0  0  0  0  0  0  0  0  0  0  0
   27.6324   43.8025    4.7935 H   0  0  0  0  0  0  0  0  0  0  0  0
  1  2  1  0
  1  6  1  0
  1 10  1  0
  2  3  1  0
  2 16  1  0
  2 17  1  0
  3  4  1  0
  3 18  1  0
  3 19  1  0
  4  5  1  0
  4 14  1  0
  4 15  1  0
  5  6  1  0
  5 20  1  0
  5 21  1  0
  6 22  1  0
  6 23  1  0
  7  8  2  0
  7 12  1  0
  7 32  1  0
  8  9  1  0
  8 30  1  0
  9 10  2  0
 10 11  1  0
 11 12  2  0
 12 13  1  0
 13 29  1  0
 13 31  1  0
 14 24  1  0
 14 28  1  0
 14 43  1  0
 15 25  1  0
 15 26  1  0
 15 27  1  0
 32 33  2  0
 32 36  1  0
 33 34  1  0
 33 37  1  0
 34 35  2  0
 34 38  1  0
 35 36  1  0
 35 39  1  0
 39 40  1  0
 39 41  1  0
 39 42  1  0
M  CHG  1  14   1
M  END
>  <ID>  (19) 
Example 4

>  <IC50 uM>  (19) 
0.97399999999999998

>  <atom.dprop.PartialCharge>  (19) 
-0.78531647 0.20627113 -0.11493009 0.13687772 -0.11493009 0.20627113 -0.32981646 0.48275 -0.7111798 0.9073816 -0.76717365 0.71628666 -0.93660814 -0.8515738 -0.13125019 0.06589427 0.06589427 0.075528026 0.075528026 0.075528026 0.075528026 0.06589427 0.06589427 0.45066288 0.07776818 0.07776818 0.07776818 0.45066288 0.4292044 0.026154462 0.4292044 -0.008876655 -0.1441813 -0.1499135 -0.07430552 -0.029535037 0.16457517 0.15873647 -0.023525774 0.052806966 0.052806966 0.052806966 0.45066288

>  <experimental dG reference units>  (19) 
uM

>  <experimental dG reference field>  (19) 
IC50 uM

>  <kJ/mol experimental dG>  (19) 
-34.526476413394995

>  <kcal/mol experimental dG>  (19) 
-8.252025911423278

>  <AmberAM1BCCCache>  (19) 
gASVjAMAAAAAAABdlCiMFm51bXB5Ll9jb3JlLm11bHRpYXJyYXmUjAZzY2FsYXKUk5SMBW51bXB5lIwFZHR5cGWUk5SMAmY4lImIh5RSlChLA4wBPJROTk5K/////0r/////SwB0lGJDCP9VC+XXWyHAlIaUUpRoA2gJQwgq07yr1LECQJSGlFKUaANoCUMIidsvTDW89L+UhpRSlGgDaAlDCCzw+shlUfw/lIaUUpRoA2gJQwiJ2y9MNbz0v5SGlFKUaANoCUMIKtO8q9SxAkCUhpRSlGgDaAlDCCKoYABGew3AlIaUUpRoA2gJQwipIGG0s3wXQJSGlFKUaANoCUMIemhi9DgnIsCUhpRSlGgDaAlDCFlTx+kC0CRAlIaUUpRoA2gJQwgbTErn5kgjwJSGlFKUaANoCUMIy4cs+24wIUCUhpRSlGgDaAlDCGI+wMiAYibAlIaUUpRoA2gJQwhEathhvx8kwJSGlFKUaANoCUMIlJfKrtx8+b+UhpRSlGgDaAlDCOWGdqCgku0/lIaUUpRoA2gJQwjlhnagoJLtP5SGlFKUaANoCUMIRr3kjmhn6z+UhpRSlGgDaAlDCEa95I5oZ+s/lIaUUpRoA2gJQwhGveSOaGfrP5SGlFKUaANoCUMIRr3kjmhn6z+UhpRSlGgDaAlDCOWGdqCgku0/lIaUUpRoA2gJQwjlhnagoJLtP5SGlFKUaANoCUMIXbrsad1wFUCUhpRSlGgDaAlDCLTD8k17K+4/lIaUUpRoA2gJQwi0w/JNeyvuP5SGlFKUaANoCUMItMPyTXsr7j+UhpRSlGgDaAlDCF267GndcBVAlIaUUpRoA2gJQwj2R4hlD+YUQJSGlFKUaANoCUMI/6HSyzw94D+UhpRSlGgDaAlDCPZHiGUP5hRAlIaUUpRoA2gJQwhhJD+aDfzuv5SGlFKUaANoCUMIjR8nHBMm+L+UhpRSlGgDaAlDCFN1ls0m8P6/lIaUUpRoA2gJQwiC19RyV/ftv5SGlFKUaANoCUMIwP9qUxj+mT+UhpRSlGgDaAlDCIyhY81raf0/lIaUUpRoA2gJQwhzgMdoYbv+P5SGlFKUaANoCUMIB7qWnk7H2L+UhpRSlGgDaAlDCGkVJ6a83eQ/lIaUUpRoA2gJQwhpFSemvN3kP5SGlFKUaANoCUMIaRUnprzd5D+UhpRSlGgDaAlDCF267GndcBVAlIaUUpRlLg==

$$$$
Example 25
     RDKit          3D

 44 46  0  0  0  0  0  0  0  0999 V2000
   24.7929   41.5142    3.1477 N   0  0  0  0  0  0  0  0  0  0  0  0
   25.8344   40.4760    3.0612 C   0  0  0  0  0  0  0  0  0  0  0  0
   27.1748   40.9732    3.6511 C   0  0  0  0  0  0  0  0  0  0  0  0
   27.7037   42.2764    2.9922 C   0  0  0  0  0  0  0  0  0  0  0  0
   26.5450   43.2287    2.5702 C   0  0  0  0  0  0  0  0  0  0  0  0
   25.1808   42.5876    2.2240 C   0  0  0  0  0  0  0  0  0  0  0  0
   19.8262   40.5700    5.6738 C   0  0  0  0  0  0  0  0  0  0  0  0
   19.5917   40.8481    7.0366 C   0  0  0  0  0  0  0  0  0  0  0  0
   18.3265   40.5734    7.5966 C   0  0  0  0  0  0  0  0  0  0  0  0
   17.3166   40.0191    6.8151 C   0  0  0  0  0  0  0  0  0  0  0  0
   17.5480   39.7348    5.4706 C   0  0  0  0  0  0  0  0  0  0  0  0
   18.7902   40.0223    4.9119 C   0  0  0  0  0  0  0  0  0  0  0  0
   21.1469   40.7953    5.0104 C   0  0  0  0  0  0  0  0  0  0  0  0
   21.1477   41.7025    4.0132 N   0  0  0  0  0  0  0  0  0  0  0  0
   22.2993   41.9387    3.3328 C   0  0  0  0  0  0  0  0  0  0  0  0
   23.5053   41.2696    3.6590 C   0  0  0  0  0  0  0  0  0  0  0  0
   23.4706   40.3379    4.6584 N   0  0  0  0  0  0  0  0  0  0  0  0
   22.3243   40.0948    5.3241 C   0  0  0  0  0  0  0  0  0  0  0  0
   17.9779   40.9265    9.2500 Cl  0  0  0  0  0  0  0  0  0  0  0  0
   20.8097   41.6023    8.0169 Cl  0  0  0  0  0  0  0  0  0  0  0  0
   22.3429   39.1348    6.3276 N   0  0  0  0  0  0  0  0  0  0  0  0
   28.3987   41.8105    1.6993 C   0  0  0  0  0  0  0  0  0  0  0  0
   28.7321   42.9896    3.7652 N   0  0  0  0  0  0  0  0  0  0  0  0
   22.0782   42.8210    2.2061 C   0  0  0  0  0  0  0  0  0  0  0  0
   21.8991   43.5262    1.2952 N   0  0  0  0  0  0  0  0  0  0  0  0
   25.5368   39.5615    3.5507 H   0  0  0  0  0  0  0  0  0  0  0  0
   25.9715   40.1872    2.0179 H   0  0  0  0  0  0  0  0  0  0  0  0
   27.8971   40.1658    3.5581 H   0  0  0  0  0  0  0  0  0  0  0  0
   27.0447   41.1141    4.7328 H   0  0  0  0  0  0  0  0  0  0  0  0
   26.8505   43.8540    1.7352 H   0  0  0  0  0  0  0  0  0  0  0  0
   26.3764   43.9599    3.3678 H   0  0  0  0  0  0  0  0  0  0  0  0
   24.4947   43.4179    2.3116 H   0  0  0  0  0  0  0  0  0  0  0  0
   25.1317   42.2639    1.1822 H   0  0  0  0  0  0  0  0  0  0  0  0
   16.3537   39.7954    7.2470 H   0  0  0  0  0  0  0  0  0  0  0  0
   16.7707   39.2857    4.8626 H   0  0  0  0  0  0  0  0  0  0  0  0
   18.9498   39.7782    3.8664 H   0  0  0  0  0  0  0  0  0  0  0  0
   21.4774   38.9007    6.7877 H   0  0  0  0  0  0  0  0  0  0  0  0
   23.1967   38.6071    6.5093 H   0  0  0  0  0  0  0  0  0  0  0  0
   28.8686   42.5474    1.0313 H   0  0  0  0  0  0  0  0  0  0  0  0
   27.7017   41.2032    1.1219 H   0  0  0  0  0  0  0  0  0  0  0  0
   29.1298   41.0412    1.9479 H   0  0  0  0  0  0  0  0  0  0  0  0
   29.0157   43.8194    3.2640 H   0  0  0  0  0  0  0  0  0  0  0  0
   28.3558   43.2524    4.6649 H   0  0  0  0  0  0  0  0  0  0  0  0
   29.5317   42.3870    3.8979 H   0  0  0  0  0  0  0  0  0  0  0  0
  1  2  1  0
  1  6  1  0
  1 16  1  0
  2  3  1  0
  2 26  1  0
  2 27  1  0
  3  4  1  0
  3 28  1  0
  3 29  1  0
  4  5  1  0
  4 22  1  0
  4 23  1  0
  5  6  1  0
  5 30  1  0
  5 31  1  0
  6 32  1  0
  6 33  1  0
  7  8  2  0
  7 12  1  0
  7 13  1  0
  8  9  1  0
  8 20  1  0
  9 10  2  0
  9 19  1  0
 10 11  1  0
 10 34  1  0
 11 12  2  0
 11 35  1  0
 12 36  1  0
 13 14  2  0
 13 18  1  0
 14 15  1  0
 15 16  2  0
 15 24  1  0
 16 17  1  0
 17 18  2  0
 18 21  1  0
 21 37  1  0
 21 38  1  0
 22 39  1  0
 22 40  1  0
 22 41  1  0
 23 42  1  0
 23 43  1  0
 23 44  1  0
 24 25  3  0
M  CHG  1  23   1
M  END
>  <ID>  (20) 
Example 25

>  <IC50 uM>  (20) 
0.315

>  <atom.dprop.PartialCharge>  (20) 
-0.7485711 0.1849214 -0.114329495 0.13869965 -0.114329495 0.1849214 -0.07749607 0.01636371 0.027805451 -0.09999382 -0.11562388 -0.11447106 0.27689862 -0.56868434 0.32776853 0.55016917 -0.7149379 0.6397989 -0.06500967 -0.06046138 -0.93072444 -0.13051988 -0.85093945 0.181844 -0.32995716 0.06460756 0.06460756 0.077312745 0.077312745 0.077312745 0.077312745 0.06460756 0.06460756 0.158111 0.14657038 0.15336998 0.44383258 0.44383258 0.07912932 0.07912932 0.07912932 0.45202407 0.45202407 0.45202407

>  <experimental dG reference units>  (20) 
uM

>  <experimental dG reference field>  (20) 
IC50 uM

>  <kJ/mol experimental dG>  (20) 
-37.34219893392536

>  <kcal/mol experimental dG>  (20) 
-8.924999745202046

>  <AmberAM1BCCCache>  (20) 
gASVnwMAAAAAAABdlCiMFm51bXB5Ll9jb3JlLm11bHRpYXJyYXmUjAZzY2FsYXKUk5SMBW51bXB5lIwFZHR5cGWUk5SMAmY4lImIh5RSlChLA4wBPJROTk5K/////0r/////SwB0lGJDCBEUaZm0iyHAlIaUUpRoA2gJQwjahPni5UUAQJSGlFKUaANoCUMIQ7OoI5M497+UhpRSlGgDaAlDCN+shipmH/4/lIaUUpRoA2gJQwhDs6gjkzj3v5SGlFKUaANoCUMI2oT54uVFAECUhpRSlGgDaAlDCHLE1EZzqfy/lIaUUpRoA2gJQwgIeXS0nsLFP5SGlFKUaANoCUMIdhok3jeIyT+UhpRSlGgDaAlDCD7NtWvGGfK/lIaUUpRoA2gJQwisbmWVX9/1v5SGlFKUaANoCUMIQgFiLrIG8L+UhpRSlGgDaAlDCJZtZti+bgxAlIaUUpRoA2gJQwiidDuvrOQYwJSGlFKUaANoCUMIUWU/PzzDDECUhpRSlGgDaAlDCGGbDBV3ihpAlIaUUpRoA2gJQwjN6epk5DUiwJSGlFKUaANoCUMIo1UxCphSHUCUhpRSlGgDaAlDCFzENPri99+/lIaUUpRoA2gJQwjalu3J+hfov5SGlFKUaANoCUMImI1culnjJcCUhpRSlGgDaAlDCPWt2A2Fefm/lIaUUpRoA2gJQwjLMT7FDO8jwJSGlFKUaANoCUMI/fvhPmygAECUhpRSlGgDaAlDCEtSLAIvGBLAlIaUUpRoA2gJQwiVPGG/D8fuP5SGlFKUaANoCUMIlTxhvw/H7j+UhpRSlGgDaAlDCGhIK5pcTu4/lIaUUpRoA2gJQwhoSCuaXE7uP5SGlFKUaANoCUMIaEgrmlxO7j+UhpRSlGgDaAlDCGhIK5pcTu4/lIaUUpRoA2gJQwiVPGG/D8fuP5SGlFKUaANoCUMIlTxhvw/H7j+UhpRSlGgDaAlDCD9e7y5sN/8/lIaUUpRoA2gJQwjNiJNC54T9P5SGlFKUaANoCUMIWpnhdOzb/D+UhpRSlGgDaAlDCGP6FTpeOBVAlIaUUpRoA2gJQwhj+hU6XjgVQJSGlFKUaANoCUMIuy7xmqfR7T+UhpRSlGgDaAlDCLsu8Zqn0e0/lIaUUpRoA2gJQwi7LvGap9HtP5SGlFKUaANoCUMIo7CVBfKbFUCUhpRSlGgDaAlDCKOwlQXymxVAlIaUUpRoA2gJQwijsJUF8psVQJSGlFKUZS4=

$$$$
4
     RDKit          3D

 43 45  0  0  0  0  0  0  0  0999 V2000
   24.6991   41.2880    3.1084 N   0  0  0  0  0  0  0  0  0  0  0  0
   24.7544   42.3659    2.0828 C   0  0  0  0  0  0  0  0  0  0  0  0
   26.0819   43.1849    2.0777 C   0  0  1  0  0  0  0  0  0  0  0  0
   27.2540   42.3327    2.4127 N   0  0  0  0  0  0  0  0  0  0  0  0
   27.1216   41.4947    3.6356 C   0  0  1  0  0  0  0  0  0  0  0  0
   25.9265   40.5256    3.4438 C   0  0  0  0  0  0  0  0  0  0  0  0
   19.7062   40.2071    5.4923 C   0  0  0  0  0  0  0  0  0  0  0  0
   19.4758   40.5221    6.8291 C   0  0  0  0  0  0  0  0  0  0  0  0
   18.1971   40.3798    7.3797 C   0  0  0  0  0  0  0  0  0  0  0  0
   17.1161   39.9866    6.5815 C   0  0  0  0  0  0  0  0  0  0  0  0
   17.3356   39.6937    5.2208 C   0  0  0  0  0  0  0  0  0  0  0  0
   18.6213   39.8380    4.6722 C   0  0  0  0  0  0  0  0  0  0  0  0
   21.0642   40.4372    4.9252 C   0  0  0  0  0  0  0  0  0  0  0  0
   21.1830   41.4378    3.9557 C   0  0  0  0  0  0  0  0  0  0  0  0
   22.3711   41.6614    3.3749 N   0  0  0  0  0  0  0  0  0  0  0  0
   23.5007   40.9783    3.7010 C   0  0  0  0  0  0  0  0  0  0  0  0
   23.3990   40.0008    4.6377 N   0  0  0  0  0  0  0  0  0  0  0  0
   22.2307   39.6970    5.2474 C   0  0  0  0  0  0  0  0  0  0  0  0
   17.9740   40.7392    9.0549 Cl  0  0  0  0  0  0  0  0  0  0  0  0
   22.2239   38.6159    6.2287 N   0  0  0  0  0  0  0  0  0  0  0  0
   26.2809   43.8707    0.7586 C   0  0  0  0  0  0  0  0  0  0  0  0
   28.3860   40.7221    3.8693 C   0  0  0  0  0  0  0  0  0  0  0  0
   15.5237   39.8315    7.2337 Cl  0  0  0  0  0  0  0  0  0  0  0  0
   23.9259   43.0695    2.1822 H   0  0  0  0  0  0  0  0  0  0  0  0
   24.6135   41.8868    1.1127 H   0  0  0  0  0  0  0  0  0  0  0  0
   26.0130   43.9718    2.8311 H   0  0  0  0  0  0  0  0  0  0  0  0
   28.0677   42.9235    2.5068 H   0  0  0  0  0  0  0  0  0  0  0  0
   26.9651   42.1293    4.5101 H   0  0  0  0  0  0  0  0  0  0  0  0
   25.8056   39.9378    4.3555 H   0  0  0  0  0  0  0  0  0  0  0  0
   26.1227   39.8075    2.6465 H   0  0  0  0  0  0  0  0  0  0  0  0
   20.2825   40.8574    7.4646 H   0  0  0  0  0  0  0  0  0  0  0  0
   16.5083   39.3864    4.5978 H   0  0  0  0  0  0  0  0  0  0  0  0
   18.7696   39.6318    3.6213 H   0  0  0  0  0  0  0  0  0  0  0  0
   20.3446   42.0389    3.6350 H   0  0  0  0  0  0  0  0  0  0  0  0
   21.3659   38.3670    6.6998 H   0  0  0  0  0  0  0  0  0  0  0  0
   23.0771   38.1169    6.4362 H   0  0  0  0  0  0  0  0  0  0  0  0
   25.4108   44.4881    0.5352 H   0  0  0  0  0  0  0  0  0  0  0  0
   26.4065   43.1229   -0.0244 H   0  0  0  0  0  0  0  0  0  0  0  0
   27.1699   44.4995    0.8065 H   0  0  0  0  0  0  0  0  0  0  0  0
   28.2786   40.1123    4.7662 H   0  0  0  0  0  0  0  0  0  0  0  0
   29.2169   41.4157    3.9988 H   0  0  0  0  0  0  0  0  0  0  0  0
   28.5813   40.0771    3.0126 H   0  0  0  0  0  0  0  0  0  0  0  0
   27.3995   41.7038    1.6361 H   0  0  0  0  0  0  0  0  0  0  0  0
  1  2  1  0
  1  6  1  0
  1 16  1  0
  2  3  1  0
  2 24  1  0
  2 25  1  0
  3  4  1  0
  3 21  1  0
  3 26  1  1
  4  5  1  0
  4 27  1  0
  4 43  1  0
  5  6  1  0
  5 22  1  0
  5 28  1  1
  6 29  1  0
  6 30  1  0
  7  8  2  0
  7 12  1  0
  7 13  1  0
  8  9  1  0
  8 31  1  0
  9 10  2  0
  9 19  1  0
 10 11  1  0
 10 23  1  0
 11 12  2  0
 11 32  1  0
 12 33  1  0
 13 14  2  0
 13 18  1  0
 14 15  1  0
 14 34  1  0
 15 16  2  0
 16 17  1  0
 17 18  2  0
 18 20  1  0
 20 35  1  0
 20 36  1  0
 21 37  1  0
 21 38  1  0
 21 39  1  0
 22 40  1  0
 22 41  1  0
 22 42  1  0
M  CHG  1   4   1
M  END
>  <ID>  (21) 
4

>  <IC50 uM>  (21) 
54

>  <atom.dprop.PartialCharge>  (21) 
-0.7810701 0.19144084 0.11982242 -0.777359 0.11982242 0.19144084 0.014004834 -0.11523014 0.03371591 0.027103214 -0.10838569 -0.11443111 -0.36456865 0.5262137 -0.74922645 0.8724496 -0.78334975 0.755151 -0.06558132 -0.93268836 -0.13097924 -0.13097924 -0.059423465 0.07899287 0.07899287 0.1099197 0.4469078 0.1099197 0.07899287 0.07899287 0.15704605 0.15805256 0.14671299 0.032333385 0.43328762 0.43328762 0.0786268 0.0786268 0.0786268 0.0786268 0.0786268 0.0786268 0.4469078

>  <experimental dG reference units>  (21) 
uM

>  <experimental dG reference field>  (21) 
IC50 uM

>  <kJ/mol experimental dG>  (21) 
-24.51082945606364

>  <kcal/mol experimental dG>  (21) 
-5.85822883749131

>  <AmberAM1BCCCache>  (21) 
gASVjAMAAAAAAABdlCiMFm51bXB5Ll9jb3JlLm11bHRpYXJyYXmUjAZzY2FsYXKUk5SMBW51bXB5lIwFZHR5cGWUk5SMAmY4lImIh5RSlChLA4wBPJROTk5K/////0r/////SwB0lGJDCIpuWtuGeSHAlIaUUpRoA2gJQwjokDshNfUAQJSGlFKUaANoCUMIxlWR0tCs9z+UhpRSlGgDaAlDCFgGJk2XDiLAlIaUUpRoA2gJQwjGVZHS0Kz3P5SGlFKUaANoCUMI6JA7ITX1AECUhpRSlGgDaAlDCAW/GjZI8dq/lIaUUpRoA2gJQwjrF0yRdgD3v5SGlFKUaANoCUMIbgA+9NDLyD+UhpRSlGgDaAlDCOdonondbtI/lIaUUpRoA2gJQwg1R3T8qR31v5SGlFKUaANoCUMINUd0/Kkd9b+UhpRSlGgDaAlDCHGeRaBLhBDAlIaUUpRoA2gJQwhM55su05UXQJSGlFKUaANoCUMI+gNkIbsmIsCUhpRSlGgDaAlDCBM29Jub4iRAlIaUUpRoA2gJQwimZJndlWYjwJSGlFKUaANoCUMIbmMTKnOLIUCUhpRSlGgDaAlDCDir38WunuK/lIaUUpRoA2gJQwiE1//JJnomwJSGlFKUaANoCUMIw5u5/oze97+UhpRSlGgDaAlDCMObuf6M3ve/lIaUUpRoA2gJQwjW2i8eh/Xfv5SGlFKUaANoCUMIVyw8or4o8T+UhpRSlGgDaAlDCFcsPKK+KPE/lIaUUpRoA2gJQwhsDIFTom7yP5SGlFKUaANoCUMIOwwBtFIXFUCUhpRSlGgDaAlDCGwMgVOibvI/lIaUUpRoA2gJQwhXLDyivijxP5SGlFKUaANoCUMIVyw8or4o8T+UhpRSlGgDaAlDCI3FVmVabf0/lIaUUpRoA2gJQwgvqT5YCI/+P5SGlFKUaANoCUMIS/6Gf/4p+z+UhpRSlGgDaAlDCKLNoO7HZuE/lIaUUpRoA2gJQwi6has7tVkVQJSGlFKUaANoCUMIuoWrO7VZFUCUhpRSlGgDaAlDCLQL2X1YM+4/lIaUUpRoA2gJQwi0C9l9WDPuP5SGlFKUaANoCUMItAvZfVgz7j+UhpRSlGgDaAlDCLQL2X1YM+4/lIaUUpRoA2gJQwi0C9l9WDPuP5SGlFKUaANoCUMItAvZfVgz7j+UhpRSlGgDaAlDCDsMAbRSFxVAlIaUUpRlLg==

$$$$
Example 3
     RDKit          3D

 40 42  0  0  0  0  0  0  0  0999 V2000
   24.5401   41.3989    2.9532 N   0  0  0  0  0  0  0  0  0  0  0  0
   24.8051   42.5811    2.1091 C   0  0  0  0  0  0  0  0  0  0  0  0
   25.8867   43.4859    2.7414 C   0  0  0  0  0  0  0  0  0  0  0  0
   27.1959   42.7112    3.0057 C   0  0  0  0  0  0  0  0  0  0  0  0
   26.8794   41.4168    3.7759 C   0  0  0  0  0  0  0  0  0  0  0  0
   25.7664   40.5923    3.1008 C   0  0  0  0  0  0  0  0  0  0  0  0
   21.0145   40.7222    4.9516 C   0  0  0  0  0  0  0  0  0  0  0  0
   21.1622   41.7734    4.0578 C   0  0  0  0  0  0  0  0  0  0  0  0
   22.3208   42.0228    3.4091 N   0  0  0  0  0  0  0  0  0  0  0  0
   23.3684   41.1984    3.6775 C   0  0  0  0  0  0  0  0  0  0  0  0
   23.3236   40.1664    4.5710 N   0  0  0  0  0  0  0  0  0  0  0  0
   22.1459   39.9363    5.1958 C   0  0  0  0  0  0  0  0  0  0  0  0
   22.1027   38.8666    6.0810 N   0  0  0  0  0  0  0  0  0  0  0  0
   28.0896   43.5958    3.9002 N   0  0  0  0  0  0  0  0  0  0  0  0
   27.9640   42.4179    1.7000 C   0  0  0  0  0  0  0  0  0  0  0  0
   25.0995   42.2499    1.1137 H   0  0  0  0  0  0  0  0  0  0  0  0
   23.9127   43.1864    1.9546 H   0  0  0  0  0  0  0  0  0  0  0  0
   25.4693   43.9239    3.6497 H   0  0  0  0  0  0  0  0  0  0  0  0
   26.0748   44.3406    2.0903 H   0  0  0  0  0  0  0  0  0  0  0  0
   26.5404   41.6483    4.7775 H   0  0  0  0  0  0  0  0  0  0  0  0
   27.7726   40.8054    3.9001 H   0  0  0  0  0  0  0  0  0  0  0  0
   26.0868   40.2603    2.1152 H   0  0  0  0  0  0  0  0  0  0  0  0
   25.5901   39.6802    3.6671 H   0  0  0  0  0  0  0  0  0  0  0  0
   28.9764   43.1472    4.0723 H   0  0  0  0  0  0  0  0  0  0  0  0
   27.3702   41.8206    1.0036 H   0  0  0  0  0  0  0  0  0  0  0  0
   28.8797   41.8544    1.8898 H   0  0  0  0  0  0  0  0  0  0  0  0
   28.2303   43.3358    1.1767 H   0  0  0  0  0  0  0  0  0  0  0  0
   28.2507   44.4725    3.4086 H   0  0  0  0  0  0  0  0  0  0  0  0
   22.9628   38.3587    6.2652 H   0  0  0  0  0  0  0  0  0  0  0  0
   20.3462   42.4465    3.8573 H   0  0  0  0  0  0  0  0  0  0  0  0
   21.2513   38.6714    6.5822 H   0  0  0  0  0  0  0  0  0  0  0  0
   19.6898   40.4893    5.5418 C   0  0  0  0  0  0  0  0  0  0  0  0
   18.5442   40.0172    4.9256 C   0  0  0  0  0  0  0  0  0  0  0  0
   17.4539   39.9740    5.7859 C   0  0  0  0  0  0  0  0  0  0  0  0
   17.7753   40.4507    7.0396 C   0  0  0  0  0  0  0  0  0  0  0  0
   19.4367   40.8750    7.2092 S   0  0  0  0  0  0  0  0  0  0  0  0
   18.5049   39.6859    3.8981 H   0  0  0  0  0  0  0  0  0  0  0  0
   16.4770   39.6243    5.4935 H   0  0  0  0  0  0  0  0  0  0  0  0
   16.7315   40.6794    8.3518 Cl  0  0  0  0  0  0  0  0  0  0  0  0
   27.6528   43.8098    4.7840 H   0  0  0  0  0  0  0  0  0  0  0  0
  1  2  1  0
  1  6  1  0
  1 10  1  0
  2  3  1  0
  2 16  1  0
  2 17  1  0
  3  4  1  0
  3 18  1  0
  3 19  1  0
  4  5  1  0
  4 14  1  0
  4 15  1  0
  5  6  1  0
  5 20  1  0
  5 21  1  0
  6 22  1  0
  6 23  1  0
  7  8  2  0
  7 12  1  0
  7 32  1  0
  8  9  1  0
  8 30  1  0
  9 10  2  0
 10 11  1  0
 11 12  2  0
 12 13  1  0
 13 29  1  0
 13 31  1  0
 14 24  1  0
 14 28  1  0
 14 40  1  0
 15 25  1  0
 15 26  1  0
 15 27  1  0
 32 33  2  0
 32 36  1  0
 33 34  1  0
 33 37  1  0
 34 35  2  0
 34 38  1  0
 35 36  1  0
 35 39  1  0
M  CHG  1  14   1
M  END
>  <ID>  (22) 
Example 3

>  <IC50 uM>  (22) 
0.94999999999999996

>  <atom.dprop.PartialCharge>  (22) 
-0.78438956 0.20719765 -0.114003435 0.1378043 -0.114003435 0.20719765 -0.32947212 0.48517483 -0.710297 0.90830773 -0.7667093 0.71868837 -0.93567437 -0.8506471 -0.13032353 0.066820905 0.066820905 0.07645467 0.07645467 0.07645467 0.07645467 0.066820905 0.066820905 0.45158955 0.07869481 0.07869481 0.07869481 0.45158955 0.43013105 0.02666774 0.43013105 -0.008250296 -0.14010546 -0.1462399 -0.0010823496 0.0022800192 0.16792867 0.1701698 -0.024437275 0.45158955

>  <experimental dG reference units>  (22) 
uM

>  <experimental dG reference field>  (22) 
IC50 uM

>  <kJ/mol experimental dG>  (22) 
-34.588708831281394

>  <kcal/mol experimental dG>  (22) 
-8.266899816271843

>  <AmberAM1BCCCache>  (22) 
gASVUwMAAAAAAABdlCiMFm51bXB5Ll9jb3JlLm11bHRpYXJyYXmUjAZzY2FsYXKUk5SMBW51bXB5lIwFZHR5cGWUk5SMAmY4lImIh5RSlChLA4wBPJROTk5K/////0r/////SwB0lGJDCPhaJAgKeiHAlIaUUpRoA2gJQwhfrEjBKvoCQJSGlFKUaANoCUMIlBjK7oPU9L+UhpRSlGgDaAlDCAqsGqOCgfw/lIaUUpRoA2gJQwiUGMrug9T0v5SGlFKUaANoCUMIX6xIwSr6AkCUhpRSlGgDaAlDCEid6lPgLQ/AlIaUUpRoA2gJQwjPEMoAqXwXQJSGlFKUaANoCUMIom5cLVk5IsCUhpRSlGgDaAlDCIPFliJXDCVAlIaUUpRoA2gJQwh90HL/IW0jwJSGlFKUaANoCUMI0nVo5wGXIUCUhpRSlGgDaAlDCFtD2euygCbAlIaUUpRoA2gJQwgx8qO7xB8kwJSGlFKUaANoCUMI+9YmfQd9+b+UhpRSlGgDaAlDCBUIvgNLku0/lIaUUpRoA2gJQwgVCL4DS5LtP5SGlFKUaANoCUMIXjfmbn6v6z+UhpRSlGgDaAlDCF435m5+r+s/lIaUUpRoA2gJQwheN+Zufq/rP5SGlFKUaANoCUMIXjfmbn6v6z+UhpRSlGgDaAlDCBUIvgNLku0/lIaUUpRoA2gJQwgVCL4DS5LtP5SGlFKUaANoCUMIl3Nep9d0FUCUhpRSlGgDaAlDCEH88yj+Cu4/lIaUUpRoA2gJQwhB/PMo/gruP5SGlFKUaANoCUMIQfzzKP4K7j+UhpRSlGgDaAlDCJdzXqfXdBVAlIaUUpRoA2gJQwjWL8oYgjoVQJSGlFKUaANoCUMIM2xUGpH33j+UhpRSlGgDaAlDCNYvyhiCOhVAlIaUUpRoA2gJQwjCAUgNyjbrv5SGlFKUaANoCUMIYgAzFNfr+7+UhpRSlGgDaAlDCGIAMxTX6/u/lIaUUpRoA2gJQwhz6onrtKvSv5SGlFKUaANoCUMIlscg3PTu5T+UhpRSlGgDaAlDCMZF7/Huiv4/lIaUUpRoA2gJQwjhiKGXAU8AQJSGlFKUaANoCUMI4ha/5WGIv7+UhpRSlGgDaAlDCJdzXqfXdBVAlIaUUpRlLg==

$$$$
Example 23
     RDKit          3D

 43 45  0  0  0  0  0  0  0  0999 V2000
   24.5404   41.5885    3.3090 N   0  0  0  0  0  0  0  0  0  0  0  0
   24.8982   42.8207    2.6006 C   0  0  0  0  0  0  0  0  0  0  0  0
   26.2819   43.3367    3.0100 C   0  0  0  0  0  0  0  0  0  0  0  0
   27.3971   42.2987    2.8091 C   0  0  0  0  0  0  0  0  0  0  0  0
   26.9514   40.9750    3.4735 C   0  0  0  0  0  0  0  0  0  0  0  0
   25.5365   40.5417    3.0039 C   0  0  0  0  0  0  0  0  0  0  0  0
   19.5908   40.5482    5.7796 C   0  0  0  0  0  0  0  0  0  0  0  0
   19.3934   40.8482    7.1425 C   0  0  0  0  0  0  0  0  0  0  0  0
   18.1521   40.5813    7.7423 C   0  0  0  0  0  0  0  0  0  0  0  0
   17.1217   40.0191    6.9875 C   0  0  0  0  0  0  0  0  0  0  0  0
   17.3078   39.7413    5.6358 C   0  0  0  0  0  0  0  0  0  0  0  0
   18.5344   40.0192    5.0382 C   0  0  0  0  0  0  0  0  0  0  0  0
   20.9028   40.7687    5.1073 C   0  0  0  0  0  0  0  0  0  0  0  0
   20.9078   41.7188    4.1417 N   0  0  0  0  0  0  0  0  0  0  0  0
   22.0632   41.9854    3.4794 C   0  0  0  0  0  0  0  0  0  0  0  0
   23.2624   41.3076    3.8120 C   0  0  0  0  0  0  0  0  0  0  0  0
   23.2282   40.3206    4.7525 N   0  0  0  0  0  0  0  0  0  0  0  0
   22.0678   40.0524    5.3940 C   0  0  0  0  0  0  0  0  0  0  0  0
   17.8605   40.9445    9.4073 Cl  0  0  0  0  0  0  0  0  0  0  0  0
   20.6492   41.6069    8.0667 Cl  0  0  0  0  0  0  0  0  0  0  0  0
   22.0799   39.0352    6.3399 N   0  0  0  0  0  0  0  0  0  0  0  0
   28.6403   42.8202    3.5448 N   0  0  0  0  0  0  0  0  0  0  0  0
   27.7928   42.1290    1.3299 C   0  0  0  0  0  0  0  0  0  0  0  0
   24.8178   42.6857    1.5203 H   0  0  0  0  0  0  0  0  0  0  0  0
   24.2286   43.6152    2.9029 H   0  0  0  0  0  0  0  0  0  0  0  0
   26.2161   43.6207    4.0603 H   0  0  0  0  0  0  0  0  0  0  0  0
   26.4810   44.2580    2.4609 H   0  0  0  0  0  0  0  0  0  0  0  0
   26.9134   41.0715    4.5641 H   0  0  0  0  0  0  0  0  0  0  0  0
   27.6822   40.1891    3.2852 H   0  0  0  0  0  0  0  0  0  0  0  0
   25.5245   40.3383    1.9332 H   0  0  0  0  0  0  0  0  0  0  0  0
   25.2946   39.5971    3.4899 H   0  0  0  0  0  0  0  0  0  0  0  0
   16.1718   39.8031    7.4535 H   0  0  0  0  0  0  0  0  0  0  0  0
   18.6691   39.7720    3.9920 H   0  0  0  0  0  0  0  0  0  0  0  0
   21.9002   43.1348    2.1934 Cl  0  0  0  0  0  0  0  0  0  0  0  0
   21.2246   38.7897    6.8170 H   0  0  0  0  0  0  0  0  0  0  0  0
   22.9415   38.5372    6.5292 H   0  0  0  0  0  0  0  0  0  0  0  0
   29.4267   42.2097    3.3639 H   0  0  0  0  0  0  0  0  0  0  0  0
   26.9724   41.7611    0.7163 H   0  0  0  0  0  0  0  0  0  0  0  0
   28.6122   41.4170    1.2248 H   0  0  0  0  0  0  0  0  0  0  0  0
   28.1175   43.0722    0.8894 H   0  0  0  0  0  0  0  0  0  0  0  0
   28.8625   43.7498    3.2184 H   0  0  0  0  0  0  0  0  0  0  0  0
   16.5085   39.3000    5.0566 H   0  0  0  0  0  0  0  0  0  0  0  0
   28.4824   42.8752    4.5419 H   0  0  0  0  0  0  0  0  0  0  0  0
  1  2  1  0
  1  6  1  0
  1 16  1  0
  2  3  1  0
  2 24  1  0
  2 25  1  0
  3  4  1  0
  3 26  1  0
  3 27  1  0
  4  5  1  0
  4 22  1  0
  4 23  1  0
  5  6  1  0
  5 28  1  0
  5 29  1  0
  6 30  1  0
  6 31  1  0
  7  8  2  0
  7 12  1  0
  7 13  1  0
  8  9  1  0
  8 20  1  0
  9 10  2  0
  9 19  1  0
 10 11  1  0
 10 32  1  0
 11 12  2  0
 11 42  1  0
 12 33  1  0
 13 14  2  0
 13 18  1  0
 14 15  1  0
 15 16  2  0
 15 34  1  0
 16 17  1  0
 17 18  2  0
 18 21  1  0
 21 35  1  0
 21 36  1  0
 22 37  1  0
 22 41  1  0
 22 43  1  0
 23 38  1  0
 23 39  1  0
 23 40  1  0
M  CHG  1  22   1
M  END
>  <ID>  (23) 
Example 23

>  <IC50 uM>  (23) 
0.39200000000000002

>  <atom.dprop.PartialCharge>  (23) 
-0.75561494 0.1885331 -0.11348495 0.13895209 -0.11348495 0.1885331 -0.091078416 0.020405572 0.028591033 -0.09886126 -0.11500237 -0.111474335 0.27934536 -0.56419 0.32502943 0.5149079 -0.7037434 0.59604734 -0.06387699 -0.05968017 -0.92590487 -0.8498067 -0.12938726 0.06615364 0.06615364 0.07792146 0.07792146 0.07792146 0.07792146 0.06615364 0.06615364 0.15924366 0.1543104 -0.10653198 0.4419824 0.4419824 0.4531567 0.080261916 0.080261916 0.080261916 0.4531567 0.14770304 0.4531567

>  <experimental dG reference units>  (23) 
uM

>  <experimental dG reference field>  (23) 
IC50 uM

>  <kJ/mol experimental dG>  (23) 
-36.79671078991912

>  <kcal/mol experimental dG>  (23) 
-8.794624949789464

>  <AmberAM1BCCCache>  (23) 
gASVjAMAAAAAAABdlCiMFm51bXB5Ll9jb3JlLm11bHRpYXJyYXmUjAZzY2FsYXKUk5SMBW51bXB5lIwFZHR5cGWUk5SMAmY4lImIh5RSlChLA4wBPJROTk5K/////0r/////SwB0lGJDCHcuM7/BACHAlIaUUpRoA2gJQwiwweESa+kAQJSGlFKUaANoCUMIWHII3iyu87+UhpRSlGgDaAlDCDFl7BG75vw/lIaUUpRoA2gJQwhYcgjeLK7zv5SGlFKUaANoCUMIsMHhEmvpAECUhpRSlGgDaAlDCA5TK4DrDfu/lIaUUpRoA2gJQwjXH7FsEU7HP5SGlFKUaANoCUMIA/qQsE7QyD+UhpRSlGgDaAlDCL8gGl++2fK/lIaUUpRoA2gJQwhd0FWPgA72v5SGlFKUaANoCUMIz9i0roeq77+UhpRSlGgDaAlDCOgWTp9r2Q1AlIaUUpRoA2gJQwjbZNUF1ooawJSGlFKUaANoCUMILOvIdQKYD0CUhpRSlGgDaAlDCG6zmVfQjxhAlIaUUpRoA2gJQwhPQ0z6/rMhwJSGlFKUaANoCUMIIl1wGuwAHECUhpRSlGgDaAlDCEj20gUAPeK/lIaUUpRoA2gJQwiYQjoIo2fpv5SGlFKUaANoCUMIn5i5w0/1JcCUhpRSlGgDaAlDCN656JcvHyTAlIaUUpRoA2gJQwilD8kHpqj5v5SGlFKUaANoCUMIxMolsfkn6z+UhpRSlGgDaAlDCMTKJbH5J+s/lIaUUpRoA2gJQwjyvlvWrKDrP5SGlFKUaANoCUMI8r5b1qyg6z+UhpRSlGgDaAlDCPK+W9asoOs/lIaUUpRoA2gJQwjyvlvWrKDrP5SGlFKUaANoCUMIxMolsfkn6z+UhpRSlGgDaAlDCMTKJbH5J+s/lIaUUpRoA2gJQwinA0W437/+P5SGlFKUaANoCUMINS7py1oN/T+UhpRSlGgDaAlDCIiqNdO9kPe/lIaUUpRoA2gJQwi3KxowAskUQJSGlFKUaANoCUMItysaMALJFECUhpRSlGgDaAlDCD7k1O4BdhVAlIaUUpRoA2gJQwgayu3sdzTuP5SGlFKUaANoCUMIGsrt7Hc07j+UhpRSlGgDaAlDCBrK7ex3NO4/lIaUUpRoA2gJQwg+5NTuAXYVQJSGlFKUaANoCUMINS7py1oN/T+UhpRSlGgDaAlDCD7k1O4BdhVAlIaUUpRlLg==

$$$$
Example 29
     RDKit          3D

 47 49  0  0  0  0  0  0  0  0999 V2000
   24.4107   41.3723    2.7009 N   0  0  0  0  0  0  0  0  0  0  0  0
   24.7838   42.6182    2.0126 C   0  0  0  0  0  0  0  0  0  0  0  0
   25.7794   43.4100    2.8966 C   0  0  0  0  0  0  0  0  0  0  0  0
   27.0503   42.5825    3.2063 C   0  0  0  0  0  0  0  0  0  0  0  0
   26.6622   41.1652    3.7013 C   0  0  0  0  0  0  0  0  0  0  0  0
   25.6079   40.5090    2.7764 C   0  0  0  0  0  0  0  0  0  0  0  0
   19.8516   40.7173    5.9010 C   0  0  0  0  0  0  0  0  0  0  0  0
   18.7679   40.1939    5.2879 C   0  0  0  0  0  0  0  0  0  0  0  0
   17.4557   39.8383    5.9773 C   0  0  0  0  0  0  0  0  0  0  0  0
   17.5170   39.9824    7.5197 C   0  0  0  0  0  0  0  0  0  0  0  0
   18.5283   41.0246    8.0301 C   0  0  0  0  0  0  0  0  0  0  0  0
   19.9293   40.8002    7.4266 C   0  0  0  0  0  0  0  0  0  0  0  0
   21.0896   40.8699    5.1066 C   0  0  0  0  0  0  0  0  0  0  0  0
   21.1118   41.9493    4.2811 N   0  0  0  0  0  0  0  0  0  0  0  0
   22.2110   42.1308    3.5040 C   0  0  0  0  0  0  0  0  0  0  0  0
   23.3187   41.2685    3.5616 C   0  0  0  0  0  0  0  0  0  0  0  0
   23.2859   40.1996    4.4067 N   0  0  0  0  0  0  0  0  0  0  0  0
   22.1835   39.9940    5.1662 C   0  0  0  0  0  0  0  0  0  0  0  0
   22.1653   38.8572    5.9693 N   0  0  0  0  0  0  0  0  0  0  0  0
   27.7758   43.2939    4.3522 N   0  0  0  0  0  0  0  0  0  0  0  0
   28.0247   42.5438    2.0086 C   0  0  0  0  0  0  0  0  0  0  0  0
   25.2593   42.3635    1.0629 H   0  0  0  0  0  0  0  0  0  0  0  0
   23.9239   43.2239    1.7281 H   0  0  0  0  0  0  0  0  0  0  0  0
   25.2565   43.6727    3.8197 H   0  0  0  0  0  0  0  0  0  0  0  0
   26.0356   44.3662    2.4332 H   0  0  0  0  0  0  0  0  0  0  0  0
   26.2316   41.2047    4.7056 H   0  0  0  0  0  0  0  0  0  0  0  0
   27.5425   40.5253    3.7846 H   0  0  0  0  0  0  0  0  0  0  0  0
   26.0191   40.3826    1.7722 H   0  0  0  0  0  0  0  0  0  0  0  0
   25.3571   39.5018    3.1076 H   0  0  0  0  0  0  0  0  0  0  0  0
   18.8198   40.0275    4.2183 H   0  0  0  0  0  0  0  0  0  0  0  0
   17.1576   38.8236    5.7071 H   0  0  0  0  0  0  0  0  0  0  0  0
   16.6743   40.4781    5.5749 H   0  0  0  0  0  0  0  0  0  0  0  0
   16.5193   40.1998    7.9100 H   0  0  0  0  0  0  0  0  0  0  0  0
   17.7737   39.0117    7.9454 H   0  0  0  0  0  0  0  0  0  0  0  0
   18.5840   40.9789    9.1205 H   0  0  0  0  0  0  0  0  0  0  0  0
   18.1707   42.0204    7.7852 H   0  0  0  0  0  0  0  0  0  0  0  0
   20.6237   41.5803    7.7370 H   0  0  0  0  0  0  0  0  0  0  0  0
   20.3330   39.8688    7.8277 H   0  0  0  0  0  0  0  0  0  0  0  0
   22.1715   42.9725    2.8339 H   0  0  0  0  0  0  0  0  0  0  0  0
   21.3346   38.6403    6.4968 H   0  0  0  0  0  0  0  0  0  0  0  0
   23.0121   38.3087    6.0818 H   0  0  0  0  0  0  0  0  0  0  0  0
   28.6348   42.8196    4.5944 H   0  0  0  0  0  0  0  0  0  0  0  0
   28.0010   44.2418    4.0797 H   0  0  0  0  0  0  0  0  0  0  0  0
   27.5905   42.0350    1.1500 H   0  0  0  0  0  0  0  0  0  0  0  0
   28.9484   42.0199    2.2567 H   0  0  0  0  0  0  0  0  0  0  0  0
   28.2988   43.5491    1.6812 H   0  0  0  0  0  0  0  0  0  0  0  0
   27.1913   43.3357    5.1774 H   0  0  0  0  0  0  0  0  0  0  0  0
  1  2  1  0
  1  6  1  0
  1 16  1  0
  2  3  1  0
  2 22  1  0
  2 23  1  0
  3  4  1  0
  3 24  1  0
  3 25  1  0
  4  5  1  0
  4 20  1  0
  4 21  1  0
  5  6  1  0
  5 26  1  0
  5 27  1  0
  6 28  1  0
  6 29  1  0
  7  8  2  0
  7 12  1  0
  7 13  1  0
  8  9  1  0
  8 30  1  0
  9 10  1  0
  9 31  1  0
  9 32  1  0
 10 11  1  0
 10 33  1  0
 10 34  1  0
 11 12  1  0
 11 35  1  0
 11 36  1  0
 12 37  1  0
 12 38  1  0
 13 14  2  0
 13 18  1  0
 14 15  1  0
 15 16  2  0
 15 39  1  0
 16 17  1  0
 17 18  2  0
 18 19  1  0
 19 40  1  0
 19 41  1  0
 20 42  1  0
 20 43  1  0
 20 47  1  0
 21 44  1  0
 21 45  1  0
 21 46  1  0
M  CHG  1  20   1
M  END
>  <ID>  (24) 
Example 29

>  <IC50 uM>  (24) 
2.585

>  <atom.dprop.PartialCharge>  (24) 
-0.76879954 0.18600924 -0.11565611 0.13705653 -0.11565611 0.18600924 -0.1605011 -0.13436784 -0.042251434 -0.078487195 -0.07084194 -0.034420524 0.25123444 -0.60628337 0.27770764 0.53117484 -0.7131348 0.596861 -0.93223476 -0.8529029 -0.13248312 0.062594146 0.062594146 0.07506333 0.07506333 0.07506333 0.07506333 0.062594146 0.062594146 0.13050579 0.054734007 0.054734007 0.049063914 0.049063914 0.048357002 0.048357002 0.05576578 0.05576578 0.038989715 0.43715993 0.43715993 0.45006084 0.45006084 0.07716614 0.07716614 0.07716614 0.45006084

>  <experimental dG reference units>  (24) 
uM

>  <experimental dG reference field>  (24) 
IC50 uM

>  <kJ/mol experimental dG>  (24) 
-32.09181421463339

>  <kcal/mol experimental dG>  (24) 
-7.670127680361708

>  <AmberAM1BCCCache>  (24) 
gASV2AMAAAAAAABdlCiMFm51bXB5Ll9jb3JlLm11bHRpYXJyYXmUjAZzY2FsYXKUk5SMBW51bXB5lIwFZHR5cGWUk5SMAmY4lImIh5RSlChLA4wBPJROTk5K/////0r/////SwB0lGJDCErfLqJgACHAlIaUUpRoA2gJQwhPfG6OZ0UAQJSGlFKUaANoCUMIv2WYZO4p9b+UhpRSlGgDaAlDCNnZiqILGv0/lIaUUpRoA2gJQwi/ZZhk7in1v5SGlFKUaANoCUMIT3xujmdFAECUhpRSlGgDaAlDCGlWJz4AQATAlIaUUpRoA2gJQwj1jTbt1+T1v5SGlFKUaANoCUMIXikmM0Zf5b+UhpRSlGgDaAlDCNmTSlgU9u2/lIaUUpRoA2gJQwhOnVIHhZXtv5SGlFKUaANoCUMIx3Apg2KA2b+UhpRSlGgDaAlDCPOMUy1/MQ5AlIaUUpRoA2gJQwhF/+cuVTEbwJSGlFKUaANoCUMIHVdba9J2CECUhpRSlGgDaAlDCCIDT/VNUxdAlIaUUpRoA2gJQwircimUW30iwJSGlFKUaANoCUMIwBBL3msoG0CUhpRSlGgDaAlDCHINqtmFKSbAlIaUUpRoA2gJQwhQwavY8k8kwJSGlFKUaANoCUMIfOV0Iopn+b+UhpRSlGgDaAlDCMNdTkwZFew/lIaUUpRoA2gJQwjDXU5MGRXsP5SGlFKUaANoCUMIgc09TWgA7D+UhpRSlGgDaAlDCIHNPU1oAOw/lIaUUpRoA2gJQwiBzT1NaADsP5SGlFKUaANoCUMIgc09TWgA7D+UhpRSlGgDaAlDCMNdTkwZFew/lIaUUpRoA2gJQwjDXU5MGRXsP5SGlFKUaANoCUMIDkOVlX5S+D+UhpRSlGgDaAlDCHcefYNOUOc/lIaUUpRoA2gJQwh3Hn2DTlDnP5SGlFKUaANoCUMIk9GaGgOh4T+UhpRSlGgDaAlDCJPRmhoDoeE/lIaUUpRoA2gJQwhNDd5YZp/jP5SGlFKUaANoCUMITQ3eWGaf4z+UhpRSlGgDaAlDCBcpe/8P+eM/lIaUUpRoA2gJQwgXKXv/D/njP5SGlFKUaANoCUMI3JUTfer34T+UhpRSlGgDaAlDCOVAWO6nbBRAlIaUUpRoA2gJQwjlQFjup2wUQJSGlFKUaANoCUMIHap8EiqJFUCUhpRSlGgDaAlDCB2qfBIqiRVAlIaUUpRoA2gJQwjNYEV8AdrtP5SGlFKUaANoCUMIzWBFfAHa7T+UhpRSlGgDaAlDCM1gRXwB2u0/lIaUUpRoA2gJQwgdqnwSKokVQJSGlFKUZS4=

$$$$
Example 14
     RDKit          3D

 40 42  0  0  0  0  0  0  0  0999 V2000
   19.8865   40.6092    5.5884 C   0  0  0  0  0  0  0  0  0  0  0  0
   19.6598   40.8590    6.9585 C   0  0  0  0  0  0  0  0  0  0  0  0
   18.4229   40.5299    7.5368 C   0  0  0  0  0  0  0  0  0  0  0  0
   17.4200   39.9555    6.7590 C   0  0  0  0  0  0  0  0  0  0  0  0
   17.6448   39.6901    5.4111 C   0  0  0  0  0  0  0  0  0  0  0  0
   18.8649   40.0233    4.8318 C   0  0  0  0  0  0  0  0  0  0  0  0
   21.1867   40.8944    4.9175 C   0  0  0  0  0  0  0  0  0  0  0  0
   21.1752   41.8933    3.9934 N   0  0  0  0  0  0  0  0  0  0  0  0
   22.3245   42.1535    3.3206 C   0  0  0  0  0  0  0  0  0  0  0  0
   23.4937   41.4209    3.5525 C   0  0  0  0  0  0  0  0  0  0  0  0
   23.5034   40.4202    4.4740 N   0  0  0  0  0  0  0  0  0  0  0  0
   22.3592   40.1611    5.1522 C   0  0  0  0  0  0  0  0  0  0  0  0
   18.0969   40.8222    9.2115 Cl  0  0  0  0  0  0  0  0  0  0  0  0
   20.8776   41.6192    7.9339 Cl  0  0  0  0  0  0  0  0  0  0  0  0
   22.3961   39.1265    6.0772 N   0  0  0  0  0  0  0  0  0  0  0  0
   24.7011   41.7162    2.9087 N   0  0  0  0  0  0  0  0  0  0  0  0
   25.9868   41.0513    3.1197 C   0  0  0  0  0  0  0  0  0  0  0  0
   27.0755   41.9343    2.4916 C   0  0  1  0  0  0  0  0  0  0  0  0
   26.3258   42.4811    1.2882 C   0  0  0  0  0  0  0  0  0  0  0  0
   24.8897   42.6468    1.7944 C   0  0  0  0  0  0  0  0  0  0  0  0
   27.6156   43.0653    3.4038 C   0  0  0  0  0  0  0  0  0  0  0  0
   28.0786   42.5076    4.7524 N   0  0  0  0  0  0  0  0  0  0  0  0
   16.4712   39.6950    7.2057 H   0  0  0  0  0  0  0  0  0  0  0  0
   16.8784   39.2211    4.8120 H   0  0  0  0  0  0  0  0  0  0  0  0
   19.0255   39.7992    3.7864 H   0  0  0  0  0  0  0  0  0  0  0  0
   22.2991   42.9651    2.6087 H   0  0  0  0  0  0  0  0  0  0  0  0
   23.2561   38.6114    6.2391 H   0  0  0  0  0  0  0  0  0  0  0  0
   21.5551   38.8901    6.5802 H   0  0  0  0  0  0  0  0  0  0  0  0
   26.1639   40.8905    4.1833 H   0  0  0  0  0  0  0  0  0  0  0  0
   25.9729   40.0534    2.6763 H   0  0  0  0  0  0  0  0  0  0  0  0
   27.9165   41.3129    2.1734 H   0  0  0  0  0  0  0  0  0  0  0  0
   26.7503   43.4162    0.9197 H   0  0  0  0  0  0  0  0  0  0  0  0
   26.3508   41.7778    0.4544 H   0  0  0  0  0  0  0  0  0  0  0  0
   24.2023   42.3874    0.9869 H   0  0  0  0  0  0  0  0  0  0  0  0
   24.7023   43.6767    2.0993 H   0  0  0  0  0  0  0  0  0  0  0  0
   28.5093   43.5362    2.9910 H   0  0  0  0  0  0  0  0  0  0  0  0
   26.8805   43.8348    3.6483 H   0  0  0  0  0  0  0  0  0  0  0  0
   28.5580   43.2205    5.2998 H   0  0  0  0  0  0  0  0  0  0  0  0
   27.2981   42.1725    5.3061 H   0  0  0  0  0  0  0  0  0  0  0  0
   28.7303   41.7510    4.6055 H   0  0  0  0  0  0  0  0  0  0  0  0
  1  2  2  0
  1  6  1  0
  1  7  1  0
  2  3  1  0
  2 14  1  0
  3  4  2  0
  3 13  1  0
  4  5  1  0
  4 23  1  0
  5  6  2  0
  5 24  1  0
  6 25  1  0
  7  8  2  0
  7 12  1  0
  8  9  1  0
  9 10  2  0
  9 26  1  0
 10 11  1  0
 10 16  1  0
 11 12  2  0
 12 15  1  0
 15 27  1  0
 15 28  1  0
 16 17  1  0
 16 20  1  0
 17 18  1  0
 17 29  1  0
 17 30  1  0
 18 19  1  0
 18 21  1  0
 18 31  1  6
 19 20  1  0
 19 32  1  0
 19 33  1  0
 20 34  1  0
 20 35  1  0
 21 22  1  0
 21 36  1  0
 21 37  1  0
 22 38  1  0
 22 39  1  0
 22 40  1  0
M  CHG  1  22   1
M  END
>  <ID>  (25) 
Example 14

>  <IC50 uM>  (25) 
0.068000000000000005

>  <atom.dprop.PartialCharge>  (25) 
-0.08745003 0.016553674 0.027490849 -0.10113609 -0.11671829 -0.11610231 0.23123309 -0.5550612 0.27242118 0.56173605 -0.7315044 0.59979206 -0.06615208 -0.061440106 -0.92761016 -0.7635934 0.19113368 -0.13573313 -0.123398915 0.18015744 0.10670273 -0.8349304 0.15696865 0.14542802 0.15238568 0.030814243 0.43063146 0.43063146 0.062852725 0.062852725 0.08853745 0.06589374 0.06589374 0.06754623 0.06754623 0.11540976 0.11540976 0.45826942 0.45826942 0.45826942

>  <experimental dG reference units>  (25) 
uM

>  <experimental dG reference field>  (25) 
IC50 uM

>  <kJ/mol experimental dG>  (25) 
-41.16620460776763

>  <kcal/mol experimental dG>  (25) 
-9.838959036273334

>  <AmberAM1BCCCache>  (25) 
gASVUwMAAAAAAABdlCiMFm51bXB5Ll9jb3JlLm11bHRpYXJyYXmUjAZzY2FsYXKUk5SMBW51bXB5lIwFZHR5cGWUk5SMAmY4lImIh5RSlChLA4wBPJROTk5K/////0r/////SwB0lGJDCHI2v8LI1/q/lIaUUpRoA2gJQwjXT2Z7h7PQP5SGlFKUaANoCUMITs7N1yRVxT+UhpRSlGgDaAlDCG7VAJ0QC/O/lIaUUpRoA2gJQwgSWxMgAHf2v5SGlFKUaANoCUMIcQmtX/z38L+UhpRSlGgDaAlDCK9iuG/ZgAtAlIaUUpRoA2gJQwgYNhPVVpwawJSGlFKUaANoCUMI/+y8F/yRBkCUhpRSlGgDaAlDCC6Em8/z3RdAlIaUUpRoA2gJQwhjV6j8IjEiwJSGlFKUaANoCUMI+CcNJWmLG0CUhpRSlGgDaAlDCD4CRniObuO/lIaUUpRoA2gJQwjZfdXlZLbov5SGlFKUaANoCUMIldyj4Oz+JcCUhpRSlGgDaAlDCEw3QE1BeyDAlIaUUpRoA2gJQwjAt50MnYYAQJSGlFKUaANoCUMI5AhM6kPz9b+UhpRSlGgDaAlDCCTqtRDL1/S/lIaUUpRoA2gJQwhSnsKRzxQAQJSGlFKUaANoCUMIqPIJu50R8z+UhpRSlGgDaAlDCPKrj65gxyPAlIaUUpRoA2gJQwi4Kbkkc5X+P5SGlFKUaANoCUMIBi+44tPp/D+UhpRSlGgDaAlDCABZ4Y+msvw/lIaUUpRoA2gJQwizYyreBljhP5SGlFKUaANoCUMIXopqe/pDFECUhpRSlGgDaAlDCF6Kanv6QxRAlIaUUpRoA2gJQwiz7iuigW3sP5SGlFKUaANoCUMIs+4rooFt7D+UhpRSlGgDaAlDCJOMTUGzbO0/lIaUUpRoA2gJQwhOtdT9v4HkP5SGlFKUaANoCUMITrXU/b+B5D+UhpRSlGgDaAlDCPa1+4fdsO4/lIaUUpRoA2gJQwj2tfuH3bDuP5SGlFKUaANoCUMIX6npvpko9z+UhpRSlGgDaAlDCF+p6b6ZKPc/lIaUUpRoA2gJQwg+x6PGza8VQJSGlFKUaANoCUMIPsejxs2vFUCUhpRSlGgDaAlDCD7Ho8bNrxVAlIaUUpRlLg==

$$$$
Example 27
     RDKit          3D

 43 45  0  0  0  0  0  0  0  0999 V2000
   24.6991   41.2880    3.1084 N   0  0  0  0  0  0  0  0  0  0  0  0
   24.7544   42.3659    2.0828 C   0  0  0  0  0  0  0  0  0  0  0  0
   26.0819   43.1849    2.0777 C   0  0  1  0  0  0  0  0  0  0  0  0
   27.2540   42.3327    2.4127 N   0  0  0  0  0  0  0  0  0  0  0  0
   27.1216   41.4947    3.6356 C   0  0  1  0  0  0  0  0  0  0  0  0
   25.9265   40.5256    3.4438 C   0  0  0  0  0  0  0  0  0  0  0  0
   19.7062   40.2071    5.4923 C   0  0  0  0  0  0  0  0  0  0  0  0
   19.4758   40.5221    6.8291 C   0  0  0  0  0  0  0  0  0  0  0  0
   18.1971   40.3798    7.3797 C   0  0  0  0  0  0  0  0  0  0  0  0
   17.1161   39.9866    6.5815 C   0  0  0  0  0  0  0  0  0  0  0  0
   17.3356   39.6937    5.2208 C   0  0  0  0  0  0  0  0  0  0  0  0
   18.6213   39.8380    4.6722 C   0  0  0  0  0  0  0  0  0  0  0  0
   21.0642   40.4372    4.9252 C   0  0  0  0  0  0  0  0  0  0  0  0
   21.1830   41.4378    3.9557 N   0  0  0  0  0  0  0  0  0  0  0  0
   22.3711   41.6614    3.3749 C   0  0  0  0  0  0  0  0  0  0  0  0
   23.5007   40.9783    3.7010 C   0  0  0  0  0  0  0  0  0  0  0  0
   23.3990   40.0008    4.6377 N   0  0  0  0  0  0  0  0  0  0  0  0
   22.2307   39.6970    5.2474 C   0  0  0  0  0  0  0  0  0  0  0  0
   17.9052   40.7222    9.0484 Cl  0  0  0  0  0  0  0  0  0  0  0  0
   20.7750   41.0744    7.8377 Cl  0  0  0  0  0  0  0  0  0  0  0  0
   22.2224   38.6180    6.2309 N   0  0  0  0  0  0  0  0  0  0  0  0
   26.2822   43.8711    0.7590 C   0  0  0  0  0  0  0  0  0  0  0  0
   28.3855   40.7216    3.8701 C   0  0  0  0  0  0  0  0  0  0  0  0
   23.9975   43.1381    2.1866 H   0  0  0  0  0  0  0  0  0  0  0  0
   24.5965   41.9041    1.1061 H   0  0  0  0  0  0  0  0  0  0  0  0
   26.0162   43.9712    2.8322 H   0  0  0  0  0  0  0  0  0  0  0  0
   28.0700   42.9204    2.5053 H   0  0  0  0  0  0  0  0  0  0  0  0
   26.9639   42.1287    4.5102 H   0  0  0  0  0  0  0  0  0  0  0  0
   25.8110   39.9363    4.3552 H   0  0  0  0  0  0  0  0  0  0  0  0
   26.1261   39.8086    2.6459 H   0  0  0  0  0  0  0  0  0  0  0  0
   16.1286   39.8947    7.0105 H   0  0  0  0  0  0  0  0  0  0  0  0
   16.5088   39.3908    4.5936 H   0  0  0  0  0  0  0  0  0  0  0  0
   18.7827   39.6501    3.6201 H   0  0  0  0  0  0  0  0  0  0  0  0
   21.3638   38.3701    6.7014 H   0  0  0  0  0  0  0  0  0  0  0  0
   23.0753   38.1193    6.4406 H   0  0  0  0  0  0  0  0  0  0  0  0
   25.4124   44.4886    0.5350 H   0  0  0  0  0  0  0  0  0  0  0  0
   26.4084   43.1235   -0.0241 H   0  0  0  0  0  0  0  0  0  0  0  0
   27.1712   44.4998    0.8079 H   0  0  0  0  0  0  0  0  0  0  0  0
   28.2774   40.1120    4.7672 H   0  0  0  0  0  0  0  0  0  0  0  0
   29.2166   41.4148    3.9999 H   0  0  0  0  0  0  0  0  0  0  0  0
   28.5810   40.0763    3.0137 H   0  0  0  0  0  0  0  0  0  0  0  0
   27.3953   41.6996    1.6390 H   0  0  0  0  0  0  0  0  0  0  0  0
   22.2830   42.4182    2.6166 H   0  0  0  0  0  0  0  0  0  0  0  0
  1  2  1  0
  1  6  1  0
  1 16  1  0
  2  3  1  0
  2 24  1  0
  2 25  1  0
  3  4  1  0
  3 22  1  0
  3 26  1  1
  4  5  1  0
  4 27  1  0
  4 42  1  0
  5  6  1  0
  5 23  1  0
  5 28  1  1
  6 29  1  0
  6 30  1  0
  7  8  2  0
  7 12  1  0
  7 13  1  0
  8  9  1  0
  8 20  1  0
  9 10  2  0
  9 19  1  0
 10 11  1  0
 10 31  1  0
 11 12  2  0
 11 32  1  0
 12 33  1  0
 13 14  2  0
 13 18  1  0
 14 15  1  0
 15 16  2  0
 15 43  1  0
 16 17  1  0
 17 18  2  0
 18 21  1  0
 21 34  1  0
 21 35  1  0
 22 36  1  0
 22 37  1  0
 22 38  1  0
 23 39  1  0
 23 40  1  0
 23 41  1  0
M  CHG  1   4   1
M  END
>  <ID>  (26) 
Example 27

>  <IC50 uM>  (26) 
0.56999999999999995

>  <atom.dprop.PartialCharge>  (26) 
-0.78817815 0.18846571 0.115608186 -0.7788524 0.115608186 0.18846571 -0.08466755 0.018414278 0.029156161 -0.09947096 -0.11505312 -0.11426121 0.24439278 -0.5514106 0.2479946 0.53288203 -0.7249895 0.63740116 -0.06448675 -0.05977477 -0.9270731 -0.13219976 -0.13219976 0.0767883 0.0767883 0.10742256 0.44623452 0.10742256 0.0767883 0.0767883 0.15863392 0.1470933 0.15405092 0.43701804 0.43701804 0.078024276 0.078024276 0.078024276 0.078024276 0.078024276 0.078024276 0.44623452 0.037801154

>  <experimental dG reference units>  (26) 
uM

>  <experimental dG reference field>  (26) 
IC50 uM

>  <kJ/mol experimental dG>  (26) 
-35.86288844412728

>  <kcal/mol experimental dG>  (26) 
-8.571436052611682

>  <AmberAM1BCCCache>  (26) 
gASVjAMAAAAAAABdlCiMFm51bXB5Ll9jb3JlLm11bHRpYXJyYXmUjAZzY2FsYXKUk5SMBW51bXB5lIwFZHR5cGWUk5SMAmY4lImIh5RSlChLA4wBPJROTk5K/////0r/////SwB0lGJDCCJPLVFfpiDAlIaUUpRoA2gJQwhiY3UqVoD7P5SGlFKUaANoCUMIeNVqtjb++D+UhpRSlGgDaAlDCNbSB0+gCCLAlIaUUpRoA2gJQwh41Wq2Nv74P5SGlFKUaANoCUMIYmN1KlaA+z+UhpRSlGgDaAlDCEUDtOjhn/u/lIaUUpRoA2gJQwh0Uiuw2MLFP5SGlFKUaANoCUMI+ODKe5BJyj+UhpRSlGgDaAlDCOHjsiWWqvK/lIaUUpRoA2gJQwh+k+5VWN/1v5SGlFKUaANoCUMIFCbr7qoG8L+UhpRSlGgDaAlDCFi1Abz/8A1AlIaUUpRoA2gJQwijiNAG0QMbwJSGlFKUaANoCUMIi2LpjWATCUCUhpRSlGgDaAlDCNe3gD50fBZAlIaUUpRoA2gJQwhi1qqQauQhwJSGlFKUaANoCUMI5C9taoDoG0CUhpRSlGgDaAlDCP+FDEIgfuG/lIaUUpRoA2gJQwh8rFOIACvqv5SGlFKUaANoCUMIPi+7m4UBJsCUhpRSlGgDaAlDCFX9BeL4xve/lIaUUpRoA2gJQwhV/QXi+Mb3v5SGlFKUaANoCUMI9+UmtrYq8D+UhpRSlGgDaAlDCPflJra2KvA/lIaUUpRoA2gJQwg4rfabEm7yP5SGlFKUaANoCUMI1/MtuzcdFUCUhpRSlGgDaAlDCDit9psSbvI/lIaUUpRoA2gJQwj35Sa2tirwP5SGlFKUaANoCUMI9+UmtrYq8D+UhpRSlGgDaAlDCIVArPEH7/4/lIaUUpRoA2gJQwgUa1AFgzz9P5SGlFKUaANoCUMIiHRYtPPb/D+UhpRSlGgDaAlDCB78VFS6yBRAlIaUUpRoA2gJQwge/FRUusgUQJSGlFKUaANoCUMIwlbMvanR7T+UhpRSlGgDaAlDCMJWzL2p0e0/lIaUUpRoA2gJQwjCVsy9qdHtP5SGlFKUaANoCUMIwlbMvanR7T+UhpRSlGgDaAlDCMJWzL2p0e0/lIaUUpRoA2gJQwjCVsy9qdHtP5SGlFKUaANoCUMI1/MtuzcdFUCUhpRSlGgDaAlDCE/8eyHHJuI/lIaUUpRlLg==

$$$$
