IBT
     RDKit          3D

 22 22  0  0  1  0  0  0  0  0999 V2000
   23.9318   18.3686   27.8365 S   0  0  0  0  0  0  0  0  0  0  0  0
   23.4547   17.2971   29.1853 C   0  0  0  0  0  0  0  0  0  0  0  0
   24.3543   16.5411   29.6702 N   0  0  0  0  0  0  0  0  0  0  0  0
   25.6319   16.6970   29.0268 C   0  0  0  0  0  0  0  0  0  0  0  0
   25.5368   17.5703   27.7773 C   0  0  0  0  0  0  0  0  0  0  0  0
   22.0074   17.3032   29.6873 C   0  0  0  0  0  0  0  0  0  0  0  0
   21.8558   18.2766   30.8857 C   0  0  0  0  0  0  0  0  0  0  0  0
   20.3996   18.6457   31.2117 C   0  0  0  0  0  0  0  0  0  0  0  0
   26.0171   15.7086   28.7736 H   0  0  0  0  0  0  0  0  0  0  0  0
   26.3098   17.1475   29.7521 H   0  0  0  0  0  0  0  0  0  0  0  0
   26.3120   18.3324   27.7466 H   0  0  0  0  0  0  0  0  0  0  0  0
   25.5886   16.9817   26.8608 H   0  0  0  0  0  0  0  0  0  0  0  0
   21.7836   16.3000   30.0549 H   0  0  0  0  0  0  0  0  0  0  0  0
   22.3366   17.8618   31.7735 H   0  0  0  0  0  0  0  0  0  0  0  0
   20.3573   19.3916   32.0053 H   0  0  0  0  0  0  0  0  0  0  0  0
   19.8889   19.0604   30.3419 H   0  0  0  0  0  0  0  0  0  0  0  0
   19.8344   17.7787   31.5525 H   0  0  0  0  0  0  0  0  0  0  0  0
   21.3246   17.5772   28.8831 H   0  0  0  0  0  0  0  0  0  0  0  0
   22.5849   19.5842   30.5900 C   0  0  0  0  0  0  0  0  0  0  0  0
   22.4704   20.2798   31.4588 H   0  0  0  0  0  0  0  0  0  0  0  0
   23.6709   19.3754   30.4199 H   0  0  0  0  0  0  0  0  0  0  0  0
   22.1479   20.0560   29.6743 H   0  0  0  0  0  0  0  0  0  0  0  0
  1  2  1  0
  1  5  1  0
  2  3  2  0
  2  6  1  0
  3  4  1  0
  4  5  1  0
  4  9  1  0
  4 10  1  0
  5 11  1  0
  5 12  1  0
  6  7  1  0
  6 13  1  0
  6 18  1  0
  7  8  1  0
  7 14  1  0
  7 19  1  0
  8 15  1  0
  8 16  1  0
  8 17  1  0
 19 20  1  0
 19 21  1  0
 19 22  1  0
M  END
>  <i_m_Source_File_Index>  (1) 
1

>  <b_m_subgroup_collapsed>  (1) 
0

>  <r_exp_dg>  (1) 
-9.09

>  <s_m_Source_File>  (1) 
frag_mup1_ligands.sdf

>  <s_m_Source_Path>  (1) 
/pmount/projects/site/pred/cadd/steinbt2/projects/2023-OpenFFtest/2024-04-26-ExampleMD-MUPtestcase

>  <s_m_entry_id>  (1) 
4

>  <s_m_subgroup_title>  (1) 
frag_mup1_ligands

>  <s_m_subgroupid>  (1) 
frag_mup1_ligands

>  <experimental dG reference units>  (1) 
kcal/mol

>  <experimental dG reference field>  (1) 
r_exp_dg

>  <kJ/mol experimental dG>  (1) 
-38.032560000000004

>  <kcal/mol experimental dG>  (1) 
-9.09

>  <AmberAM1BCCCache>  (1) 
gASV/QEAAAAAAABdlCiMFm51bXB5Ll9jb3JlLm11bHRpYXJyYXmUjAZzY2FsYXKUk5SMBW51bXB5lIwFZHR5cGWUk5SMAmY4lImIh5RSlChLA4wBPJROTk5K/////0r/////SwB0lGJDCAM6GSHdWw3AlIaUUpRoA2gJQwiGSdTQnRIWQJSGlFKUaANoCUMIP8igx8k/G8CUhpRSlGgDaAlDCPi8QZ9Y7fA/lIaUUpRoA2gJQwi36N35XK7dv5SGlFKUaANoCUMIVavw4hjB87+UhpRSlGgDaAlDCIQvc/UzpuS/lIaUUpRoA2gJQwjzSuEF6Xjxv5SGlFKUaANoCUMIW8fwinq57D+UhpRSlGgDaAlDCFvH8Ip6uew/lIaUUpRoA2gJQwi3r1zV4KrtP5SGlFKUaANoCUMIt69c1eCq7T+UhpRSlGgDaAlDCBs0zWcKY+g/lIaUUpRoA2gJQwjL52VlZzjhP5SGlFKUaANoCUMIsu7QHLgI3T+UhpRSlGgDaAlDCLLu0By4CN0/lIaUUpRoA2gJQwiy7tAcuAjdP5SGlFKUaANoCUMIGzTNZwpj6D+UhpRSlGgDaAlDCPNK4QXpePG/lIaUUpRoA2gJQwiy7tAcuAjdP5SGlFKUaANoCUMIsu7QHLgI3T+UhpRSlGgDaAlDCLLu0By4CN0/lIaUUpRlLg==

$$$$
MT
     RDKit          3D

 13 13  0  0  1  0  0  0  0  0999 V2000
   23.9318   18.3686   27.8365 S   0  0  0  0  0  0  0  0  0  0  0  0
   23.4547   17.2971   29.1853 C   0  0  0  0  0  0  0  0  0  0  0  0
   24.3543   16.5411   29.6702 N   0  0  0  0  0  0  0  0  0  0  0  0
   25.6319   16.6970   29.0268 C   0  0  0  0  0  0  0  0  0  0  0  0
   25.5368   17.5703   27.7773 C   0  0  0  0  0  0  0  0  0  0  0  0
   22.0074   17.3032   29.6873 C   0  0  0  0  0  0  0  0  0  0  0  0
   26.0171   15.7086   28.7736 H   0  0  0  0  0  0  0  0  0  0  0  0
   26.3098   17.1475   29.7521 H   0  0  0  0  0  0  0  0  0  0  0  0
   26.3120   18.3324   27.7466 H   0  0  0  0  0  0  0  0  0  0  0  0
   25.5886   16.9817   26.8608 H   0  0  0  0  0  0  0  0  0  0  0  0
   21.7836   16.3000   30.0549 H   0  0  0  0  0  0  0  0  0  0  0  0
   21.3246   17.5772   28.8831 H   0  0  0  0  0  0  0  0  0  0  0  0
   21.9104   18.0183   30.5042 H   0  0  0  0  0  0  0  0  0  0  0  0
  1  2  1  0
  1  5  1  0
  2  3  2  0
  2  6  1  0
  3  4  1  0
  4  5  1  0
  4  7  1  0
  4  8  1  0
  5  9  1  0
  5 10  1  0
  6 11  1  0
  6 12  1  0
  6 13  1  0
M  END
>  <i_m_Source_File_Index>  (2) 
2

>  <b_m_subgroup_collapsed>  (2) 
0

>  <r_exp_dg>  (2) 
-5.64

>  <s_m_Source_File>  (2) 
frag_mup1_ligands.sdf

>  <s_m_Source_Path>  (2) 
/pmount/projects/site/pred/cadd/steinbt2/projects/2023-OpenFFtest/2024-04-26-ExampleMD-MUPtestcase

>  <s_m_entry_id>  (2) 
5

>  <s_m_subgroup_title>  (2) 
frag_mup1_ligands

>  <s_m_subgroupid>  (2) 
frag_mup1_ligands

>  <experimental dG reference units>  (2) 
kcal/mol

>  <experimental dG reference field>  (2) 
r_exp_dg

>  <kJ/mol experimental dG>  (2) 
-23.59776

>  <kcal/mol experimental dG>  (2) 
-5.64

>  <AmberAM1BCCCache>  (2) 
gASVUgEAAAAAAABdlCiMFm51bXB5Ll9jb3JlLm11bHRpYXJyYXmUjAZzY2FsYXKUk5SMBW51bXB5lIwFZHR5cGWUk5SMAmY4lImIh5RSlChLA4wBPJROTk5K/////0r/////SwB0lGJDCGYQVOsSyAzAlIaUUpRoA2gJQwg+8cZJZJsVQJSGlFKUaANoCUMI/Cm2/XNWG8CUhpRSlGgDaAlDCI8s5Bc/8/A/lIaUUpRoA2gJQwhbKlQXw5bdv5SGlFKUaANoCUMI4P4uUG4z+L+UhpRSlGgDaAlDCM6hsSSP9ew/lIaUUpRoA2gJQwjOobEkj/XsP5SGlFKUaANoCUMI5I6hxq227T+UhpRSlGgDaAlDCOSOocattu0/lIaUUpRoA2gJQwioysvQr07oP5SGlFKUaANoCUMIqMrL0K9O6D+UhpRSlGgDaAlDCKjKy9CvTug/lIaUUpRlLg==

$$$$
PT
     RDKit          3D

 19 19  0  0  1  0  0  0  0  0999 V2000
   23.9318   18.3686   27.8365 S   0  0  0  0  0  0  0  0  0  0  0  0
   23.4547   17.2971   29.1853 C   0  0  0  0  0  0  0  0  0  0  0  0
   24.3543   16.5411   29.6702 N   0  0  0  0  0  0  0  0  0  0  0  0
   25.6319   16.6970   29.0268 C   0  0  0  0  0  0  0  0  0  0  0  0
   25.5368   17.5703   27.7773 C   0  0  0  0  0  0  0  0  0  0  0  0
   22.0074   17.3032   29.6873 C   0  0  0  0  0  0  0  0  0  0  0  0
   21.8558   18.2766   30.8857 C   0  0  0  0  0  0  0  0  0  0  0  0
   20.3996   18.6457   31.2117 C   0  0  0  0  0  0  0  0  0  0  0  0
   26.0171   15.7086   28.7736 H   0  0  0  0  0  0  0  0  0  0  0  0
   26.3098   17.1475   29.7521 H   0  0  0  0  0  0  0  0  0  0  0  0
   26.3120   18.3324   27.7466 H   0  0  0  0  0  0  0  0  0  0  0  0
   25.5886   16.9817   26.8608 H   0  0  0  0  0  0  0  0  0  0  0  0
   21.7836   16.3000   30.0549 H   0  0  0  0  0  0  0  0  0  0  0  0
   22.3774   19.2122   30.6741 H   0  0  0  0  0  0  0  0  0  0  0  0
   22.3366   17.8618   31.7735 H   0  0  0  0  0  0  0  0  0  0  0  0
   20.3573   19.3916   32.0053 H   0  0  0  0  0  0  0  0  0  0  0  0
   19.8889   19.0604   30.3419 H   0  0  0  0  0  0  0  0  0  0  0  0
   19.8344   17.7787   31.5525 H   0  0  0  0  0  0  0  0  0  0  0  0
   21.3246   17.5772   28.8831 H   0  0  0  0  0  0  0  0  0  0  0  0
  1  2  1  0
  1  5  1  0
  2  3  2  0
  2  6  1  0
  3  4  1  0
  4  5  1  0
  4  9  1  0
  4 10  1  0
  5 11  1  0
  5 12  1  0
  6  7  1  0
  6 13  1  0
  6 19  1  0
  7  8  1  0
  7 14  1  0
  7 15  1  0
  8 16  1  0
  8 17  1  0
  8 18  1  0
M  END
>  <i_m_Source_File_Index>  (3) 
3

>  <b_m_subgroup_collapsed>  (3) 
0

>  <r_exp_dg>  (3) 
-8.2

>  <s_m_Source_File>  (3) 
frag_mup1_ligands.sdf

>  <s_m_Source_Path>  (3) 
/pmount/projects/site/pred/cadd/steinbt2/projects/2023-OpenFFtest/2024-04-26-ExampleMD-MUPtestcase

>  <s_m_entry_id>  (3) 
6

>  <s_m_subgroup_title>  (3) 
frag_mup1_ligands

>  <s_m_subgroupid>  (3) 
frag_mup1_ligands

>  <experimental dG reference units>  (3) 
kcal/mol

>  <experimental dG reference field>  (3) 
r_exp_dg

>  <kJ/mol experimental dG>  (3) 
-34.3088

>  <kcal/mol experimental dG>  (3) 
-8.2

>  <AmberAM1BCCCache>  (3) 
gASVxAEAAAAAAABdlCiMFm51bXB5Ll9jb3JlLm11bHRpYXJyYXmUjAZzY2FsYXKUk5SMBW51bXB5lIwFZHR5cGWUk5SMAmY4lImIh5RSlChLA4wBPJROTk5K/////0r/////SwB0lGJDCC2yMPpYEg3AlIaUUpRoA2gJQwgUmDGpvsoVQJSGlFKUaANoCUMImX+oXE9LG8CUhpRSlGgDaAlDCNTanvOJ7/A/lIaUUpRoA2gJQwhJcWmol6Xdv5SGlFKUaANoCUMIBYSL33Yf9L+UhpRSlGgDaAlDCOWfmtQLEOy/lIaUUpRoA2gJQwhFIbrWau/xv5SGlFKUaANoCUMIV/4m3CTu7D+UhpRSlGgDaAlDCFf+Jtwk7uw/lIaUUpRoA2gJQwht6xZ+Q6/tP5SGlFKUaANoCUMIbesWfkOv7T+UhpRSlGgDaAlDCNJvhxBtZ+g/lIaUUpRoA2gJQwh/73NL3k/jP5SGlFKUaANoCUMIf+9zS95P4z+UhpRSlGgDaAlDCGqVbdmwLts/lIaUUpRoA2gJQwhqlW3ZsC7bP5SGlFKUaANoCUMIapVt2bAu2z+UhpRSlGgDaAlDCNJvhxBtZ+g/lIaUUpRlLg==

$$$$
SBT_S
     RDKit          3D

 22 22  0  0  1  0  0  0  0  0999 V2000
   23.9318   18.3686   27.8365 S   0  0  0  0  0  0  0  0  0  0  0  0
   23.4547   17.2971   29.1853 C   0  0  0  0  0  0  0  0  0  0  0  0
   24.3543   16.5411   29.6702 N   0  0  0  0  0  0  0  0  0  0  0  0
   25.6319   16.6970   29.0268 C   0  0  0  0  0  0  0  0  0  0  0  0
   25.5368   17.5703   27.7773 C   0  0  0  0  0  0  0  0  0  0  0  0
   22.0074   17.3032   29.6873 C   0  0  2  0  0  0  0  0  0  0  0  0
   21.8558   18.2766   30.8857 C   0  0  0  0  0  0  0  0  0  0  0  0
   20.3996   18.6457   31.2117 C   0  0  0  0  0  0  0  0  0  0  0  0
   21.5030   15.8741   29.9984 C   0  0  0  0  0  0  0  0  0  0  0  0
   26.0171   15.7086   28.7736 H   0  0  0  0  0  0  0  0  0  0  0  0
   26.3098   17.1475   29.7521 H   0  0  0  0  0  0  0  0  0  0  0  0
   26.3120   18.3324   27.7466 H   0  0  0  0  0  0  0  0  0  0  0  0
   25.5886   16.9817   26.8608 H   0  0  0  0  0  0  0  0  0  0  0  0
   21.3848   17.6834   28.8753 H   0  0  0  0  0  0  0  0  0  0  0  0
   22.3774   19.2122   30.6741 H   0  0  0  0  0  0  0  0  0  0  0  0
   22.3366   17.8618   31.7735 H   0  0  0  0  0  0  0  0  0  0  0  0
   20.3573   19.3916   32.0053 H   0  0  0  0  0  0  0  0  0  0  0  0
   19.8889   19.0604   30.3419 H   0  0  0  0  0  0  0  0  0  0  0  0
   19.8344   17.7787   31.5525 H   0  0  0  0  0  0  0  0  0  0  0  0
   20.4627   15.8802   30.3174 H   0  0  0  0  0  0  0  0  0  0  0  0
   21.5602   15.2318   29.1196 H   0  0  0  0  0  0  0  0  0  0  0  0
   22.0835   15.3983   30.7891 H   0  0  0  0  0  0  0  0  0  0  0  0
  1  2  1  0
  1  5  1  0
  2  3  2  0
  2  6  1  0
  3  4  1  0
  4  5  1  0
  4 10  1  0
  4 11  1  0
  5 12  1  0
  5 13  1  0
  6  7  1  0
  6  9  1  0
  6 14  1  6
  7  8  1  0
  7 15  1  0
  7 16  1  0
  8 17  1  0
  8 18  1  0
  8 19  1  0
  9 20  1  0
  9 21  1  0
  9 22  1  0
M  END
>  <i_m_Source_File_Index>  (4) 
5

>  <b_m_subgroup_collapsed>  (4) 
0

>  <r_exp_dg>  (4) 
-8.42

>  <s_m_Source_File>  (4) 
frag_mup1_ligands.sdf

>  <s_m_Source_Path>  (4) 
/pmount/projects/site/pred/cadd/steinbt2/projects/2023-OpenFFtest/2024-04-26-ExampleMD-MUPtestcase

>  <s_m_entry_id>  (4) 
8

>  <s_m_subgroup_title>  (4) 
frag_mup1_ligands

>  <s_m_subgroupid>  (4) 
frag_mup1_ligands

>  <experimental dG reference units>  (4) 
kcal/mol

>  <experimental dG reference field>  (4) 
r_exp_dg

>  <kJ/mol experimental dG>  (4) 
-35.22928

>  <kcal/mol experimental dG>  (4) 
-8.42

>  <AmberAM1BCCCache>  (4) 
gASV/QEAAAAAAABdlCiMFm51bXB5Ll9jb3JlLm11bHRpYXJyYXmUjAZzY2FsYXKUk5SMBW51bXB5lIwFZHR5cGWUk5SMAmY4lImIh5RSlChLA4wBPJROTk5K/////0r/////SwB0lGJDCAmlxekLIgzAlIaUUpRoA2gJQwgbKG/gVeIVQJSGlFKUaANoCUMIe+gkoiN8G8CUhpRSlGgDaAlDCO8aldDmTfE/lIaUUpRoA2gJQwjb2fdDq9vhv5SGlFKUaANoCUMI8lqUYBvL8L+UhpRSlGgDaAlDCJkyvngzkuq/lIaUUpRoA2gJQwhv3D+iVcHxv5SGlFKUaANoCUMIaqiT32nU87+UhpRSlGgDaAlDCO2aK6Mwiew/lIaUUpRoA2gJQwjtmiujMInsP5SGlFKUaANoCUMIA4gbRU9K7T+UhpRSlGgDaAlDCAOIG0VPSu0/lIaUUpRoA2gJQwhMt0OwgmfrP5SGlFKUaANoCUMI0JD8aaK64j+UhpRSlGgDaAlDCNCQ/GmiuuI/lIaUUpRoA2gJQwitu2YJ5yXbP5SGlFKUaANoCUMIrbtmCecl2z+UhpRSlGgDaAlDCK27ZgnnJds/lIaUUpRoA2gJQwikUb6Q6zniP5SGlFKUaANoCUMIpFG+kOs54j+UhpRSlGgDaAlDCKRRvpDrOeI/lIaUUpRlLg==

$$$$
IPT
     RDKit          3D

 19 19  0  0  1  0  0  0  0  0999 V2000
   23.9318   18.3686   27.8365 S   0  0  0  0  0  0  0  0  0  0  0  0
   23.4547   17.2971   29.1853 C   0  0  0  0  0  0  0  0  0  0  0  0
   24.3543   16.5411   29.6702 N   0  0  0  0  0  0  0  0  0  0  0  0
   25.6319   16.6970   29.0268 C   0  0  0  0  0  0  0  0  0  0  0  0
   25.5368   17.5703   27.7773 C   0  0  0  0  0  0  0  0  0  0  0  0
   22.0074   17.3032   29.6873 C   0  0  0  0  0  0  0  0  0  0  0  0
   21.8558   18.2766   30.8857 C   0  0  0  0  0  0  0  0  0  0  0  0
   20.9790   17.6041   28.5713 C   0  0  0  0  0  0  0  0  0  0  0  0
   26.0171   15.7086   28.7736 H   0  0  0  0  0  0  0  0  0  0  0  0
   26.3098   17.1475   29.7521 H   0  0  0  0  0  0  0  0  0  0  0  0
   26.3120   18.3324   27.7466 H   0  0  0  0  0  0  0  0  0  0  0  0
   25.5886   16.9817   26.8608 H   0  0  0  0  0  0  0  0  0  0  0  0
   21.7836   16.3000   30.0549 H   0  0  0  0  0  0  0  0  0  0  0  0
   22.3774   19.2122   30.6741 H   0  0  0  0  0  0  0  0  0  0  0  0
   22.3366   17.8618   31.7735 H   0  0  0  0  0  0  0  0  0  0  0  0
   21.0638   16.8947   27.7506 H   0  0  0  0  0  0  0  0  0  0  0  0
   19.9567   17.5360   28.9434 H   0  0  0  0  0  0  0  0  0  0  0  0
   21.1088   18.6027   28.1536 H   0  0  0  0  0  0  0  0  0  0  0  0
   20.8013   18.4695   31.0836 H   0  0  0  0  0  0  0  0  0  0  0  0
  1  2  1  0
  1  5  1  0
  2  3  2  0
  2  6  1  0
  3  4  1  0
  4  5  1  0
  4  9  1  0
  4 10  1  0
  5 11  1  0
  5 12  1  0
  6  7  1  0
  6  8  1  0
  6 13  1  0
  7 14  1  0
  7 15  1  0
  7 19  1  0
  8 16  1  0
  8 17  1  0
  8 18  1  0
M  END
>  <i_m_Source_File_Index>  (5) 
6

>  <b_m_subgroup_collapsed>  (5) 
0

>  <r_exp_dg>  (5) 
-7.85

>  <s_m_Source_File>  (5) 
frag_mup1_ligands.sdf

>  <s_m_Source_Path>  (5) 
/pmount/projects/site/pred/cadd/steinbt2/projects/2023-OpenFFtest/2024-04-26-ExampleMD-MUPtestcase

>  <s_m_entry_id>  (5) 
9

>  <s_m_subgroup_title>  (5) 
frag_mup1_ligands

>  <s_m_subgroupid>  (5) 
frag_mup1_ligands

>  <experimental dG reference units>  (5) 
kcal/mol

>  <experimental dG reference field>  (5) 
r_exp_dg

>  <kJ/mol experimental dG>  (5) 
-32.8444

>  <kcal/mol experimental dG>  (5) 
-7.85

>  <AmberAM1BCCCache>  (5) 
gASVxAEAAAAAAABdlCiMFm51bXB5Ll9jb3JlLm11bHRpYXJyYXmUjAZzY2FsYXKUk5SMBW51bXB5lIwFZHR5cGWUk5SMAmY4lImIh5RSlChLA4wBPJROTk5K/////0r/////SwB0lGJDCF3texlm7wvAlIaUUpRoA2gJQwgJC9pLPbMVQJSGlFKUaANoCUMIdgsfpOJuG8CUhpRSlGgDaAlDCHeYtHdbIvE/lIaUUpRoA2gJQwi28chTo3Hhv5SGlFKUaANoCUMI9tNsCjZX8b+UhpRSlGgDaAlDCCxanKMoHfK/lIaUUpRoA2gJQwgsWpyjKB3yv5SGlFKUaANoCUMIiIxiQqmS7D+UhpRSlGgDaAlDCIiMYkKpkuw/lIaUUpRoA2gJQwieeVLkx1PtP5SGlFKUaANoCUMInnlS5MdT7T+UhpRSlGgDaAlDCIiMYkKpkuw/lIaUUpRoA2gJQwg9qFPF3UHhP5SGlFKUaANoCUMIPahTxd1B4T+UhpRSlGgDaAlDCD2oU8XdQeE/lIaUUpRoA2gJQwg9qFPF3UHhP5SGlFKUaANoCUMIPahTxd1B4T+UhpRSlGgDaAlDCD2oU8XdQeE/lIaUUpRlLg==

$$$$
ET
     RDKit          3D

 16 16  0  0  1  0  0  0  0  0999 V2000
   23.9318   18.3686   27.8365 S   0  0  0  0  0  0  0  0  0  0  0  0
   23.4547   17.2971   29.1853 C   0  0  0  0  0  0  0  0  0  0  0  0
   24.3543   16.5411   29.6702 N   0  0  0  0  0  0  0  0  0  0  0  0
   25.6319   16.6970   29.0268 C   0  0  0  0  0  0  0  0  0  0  0  0
   25.5368   17.5703   27.7773 C   0  0  0  0  0  0  0  0  0  0  0  0
   22.0074   17.3032   29.6873 C   0  0  0  0  0  0  0  0  0  0  0  0
   21.8558   18.2766   30.8857 C   0  0  0  0  0  0  0  0  0  0  0  0
   26.0171   15.7086   28.7736 H   0  0  0  0  0  0  0  0  0  0  0  0
   26.3098   17.1475   29.7521 H   0  0  0  0  0  0  0  0  0  0  0  0
   26.3120   18.3324   27.7466 H   0  0  0  0  0  0  0  0  0  0  0  0
   25.5886   16.9817   26.8608 H   0  0  0  0  0  0  0  0  0  0  0  0
   21.7836   16.3000   30.0549 H   0  0  0  0  0  0  0  0  0  0  0  0
   22.3774   19.2122   30.6741 H   0  0  0  0  0  0  0  0  0  0  0  0
   22.3366   17.8618   31.7735 H   0  0  0  0  0  0  0  0  0  0  0  0
   20.8013   18.4695   31.0836 H   0  0  0  0  0  0  0  0  0  0  0  0
   21.3246   17.5772   28.8831 H   0  0  0  0  0  0  0  0  0  0  0  0
  1  2  1  0
  1  5  1  0
  2  3  2  0
  2  6  1  0
  3  4  1  0
  4  5  1  0
  4  8  1  0
  4  9  1  0
  5 10  1  0
  5 11  1  0
  6  7  1  0
  6 12  1  0
  6 16  1  0
  7 13  1  0
  7 14  1  0
  7 15  1  0
M  END
>  <i_m_Source_File_Index>  (6) 
7

>  <b_m_subgroup_collapsed>  (6) 
0

>  <r_exp_dg>  (6) 
-6.96

>  <s_m_Source_File>  (6) 
frag_mup1_ligands.sdf

>  <s_m_Source_Path>  (6) 
/pmount/projects/site/pred/cadd/steinbt2/projects/2023-OpenFFtest/2024-04-26-ExampleMD-MUPtestcase

>  <s_m_entry_id>  (6) 
10

>  <s_m_subgroup_title>  (6) 
frag_mup1_ligands

>  <s_m_subgroupid>  (6) 
frag_mup1_ligands

>  <experimental dG reference units>  (6) 
kcal/mol

>  <experimental dG reference field>  (6) 
r_exp_dg

>  <kJ/mol experimental dG>  (6) 
-29.12064

>  <kcal/mol experimental dG>  (6) 
-6.96

>  <AmberAM1BCCCache>  (6) 
gASViwEAAAAAAABdlCiMFm51bXB5Ll9jb3JlLm11bHRpYXJyYXmUjAZzY2FsYXKUk5SMBW51bXB5lIwFZHR5cGWUk5SMAmY4lImIh5RSlChLA4wBPJROTk5K/////0r/////SwB0lGJDCJeUutDtyQzAlIaUUpRoA2gJQwgmrxPXdpoVQJSGlFKUaANoCUMIcm4rnD0/G8CUhpRSlGgDaAlDCC4kF02J7/A/lIaUUpRoA2gJQwjiS4hCmqXdv5SGlFKUaANoCUMIqzoThncf9L+UhpRSlGgDaAlDCEr0WYq9zfC/lIaUUpRoA2gJQwgMkRePI+7sP5SGlFKUaANoCUMIDJEXjyPu7D+UhpRSlGgDaAlDCCJ+BzFCr+0/lIaUUpRoA2gJQwgifgcxQq/tP5SGlFKUaANoCUMIQQf8GiQ36D+UhpRSlGgDaAlDCCDJIB+qe+A/lIaUUpRoA2gJQwggySAfqnvgP5SGlFKUaANoCUMIIMkgH6p74D+UhpRSlGgDaAlDCEEH/BokN+g/lIaUUpRlLg==

$$$$
