cmpd 5 (1-Butenyl)
     RDKit          3D

 46 48  0  0  1  0  0  0  0  0999 V2000
    0.8286  -10.0171   -2.8649 C   0  0  0  0  0  0  0  0  0  0  0  0
    1.1012   -9.3008   -5.2657 C   0  0  0  0  0  0  0  0  0  0  0  0
    2.9791   -9.2007   -3.6636 C   0  0  0  0  0  0  0  0  0  0  0  0
    3.9261   -8.6657   -4.6001 C   0  0  0  0  0  0  0  0  0  0  0  0
    3.4253   -8.5197   -5.9939 C   0  0  0  0  0  0  0  0  0  0  0  0
    4.0864   -8.0193   -7.2061 C   0  0  0  0  0  0  0  0  0  0  0  0
    2.9657   -8.1125   -8.0472 C   0  0  0  0  0  0  0  0  0  0  0  0
    2.0805   -8.8158   -6.2531 C   0  0  0  0  0  0  0  0  0  0  0  0
    0.5256   -8.7887   -1.9139 C   0  0  0  0  0  0  0  0  0  0  0  0
    0.0593   -9.2936    0.4746 C   0  0  0  0  0  0  0  0  0  0  0  0
   -0.3359   -9.2951   -0.7929 C   0  0  0  0  0  0  0  0  0  0  0  0
    1.6889   -9.4626   -3.9592 N   0  0  0  0  0  0  0  0  0  0  0  0
    1.7897   -8.5308   -7.6114 N   0  0  0  0  0  0  0  0  0  0  0  0
   -0.0747   -9.4181   -5.4525 O   0  0  0  0  0  0  0  0  0  0  0  0
    5.3215   -8.3826   -4.2140 C   0  0  0  0  0  0  0  0  0  0  0  0
    6.4256   -8.5538   -5.0346 C   0  0  0  0  0  0  0  0  0  0  0  0
    7.6951   -8.1507   -4.6416 C   0  0  0  0  0  0  0  0  0  0  0  0
    7.9430   -7.6183   -3.3662 C   0  0  0  0  0  0  0  0  0  0  0  0
    6.8378   -7.4280   -2.5337 C   0  0  0  0  0  0  0  0  0  0  0  0
    5.5388   -7.7685   -2.9419 C   0  0  0  0  0  0  0  0  0  0  0  0
    7.0406   -6.8175   -1.1787 C   0  0  0  0  0  0  0  0  0  0  0  0
    6.7217   -5.6756   -0.8608 O   0  0  0  0  0  0  0  0  0  0  0  0
    7.5863   -7.3776   -0.0987 N   0  0  0  0  0  0  0  0  0  0  0  0
    7.7568   -6.7291    1.1982 C   0  0  0  0  0  0  0  0  0  0  0  0
    8.1097   -8.7384   -0.0222 C   0  0  0  0  0  0  0  0  0  0  0  0
   -0.0941  -10.4663   -3.2362 H   0  0  0  0  0  0  0  0  0  0  0  0
    1.3638  -10.8041   -2.3316 H   0  0  0  0  0  0  0  0  0  0  0  0
    3.2447   -9.4030   -2.6366 H   0  0  0  0  0  0  0  0  0  0  0  0
    5.0879   -7.6676   -7.4071 H   0  0  0  0  0  0  0  0  0  0  0  0
    2.9734   -7.8332   -9.0918 H   0  0  0  0  0  0  0  0  0  0  0  0
   -0.0119   -8.0052   -2.4503 H   0  0  0  0  0  0  0  0  0  0  0  0
    1.4406   -8.3448   -1.5192 H   0  0  0  0  0  0  0  0  0  0  0  0
   -0.5864   -9.6662    1.2568 H   0  0  0  0  0  0  0  0  0  0  0  0
    1.0316   -8.9228    0.7655 H   0  0  0  0  0  0  0  0  0  0  0  0
   -1.3146   -9.6730   -1.0555 H   0  0  0  0  0  0  0  0  0  0  0  0
    0.9016   -8.6285   -8.0860 H   0  0  0  0  0  0  0  0  0  0  0  0
    6.3021   -9.0003   -6.0094 H   0  0  0  0  0  0  0  0  0  0  0  0
    8.5234   -8.2940   -5.3202 H   0  0  0  0  0  0  0  0  0  0  0  0
    8.9392   -7.3383   -3.0551 H   0  0  0  0  0  0  0  0  0  0  0  0
    4.7091   -7.5690   -2.2798 H   0  0  0  0  0  0  0  0  0  0  0  0
    7.3683   -5.7119    1.1496 H   0  0  0  0  0  0  0  0  0  0  0  0
    7.2135   -7.2896    1.9589 H   0  0  0  0  0  0  0  0  0  0  0  0
    8.8160   -6.7017    1.4542 H   0  0  0  0  0  0  0  0  0  0  0  0
    7.9861   -9.2300   -0.9871 H   0  0  0  0  0  0  0  0  0  0  0  0
    9.1681   -8.7066    0.2365 H   0  0  0  0  0  0  0  0  0  0  0  0
    7.5656   -9.2946    0.7412 H   0  0  0  0  0  0  0  0  0  0  0  0
  1  9  1  0
  1 12  1  0
  1 26  1  0
  1 27  1  0
  2  8  1  0
  2 12  1  0
  2 14  2  0
  3  4  2  0
  3 12  1  0
  3 28  1  0
  4  5  1  0
  4 15  1  0
  5  6  1  0
  5  8  2  0
  6  7  2  0
  6 29  1  0
  7 13  1  0
  7 30  1  0
  8 13  1  0
  9 11  1  0
  9 31  1  0
  9 32  1  0
 10 11  2  0
 10 33  1  0
 10 34  1  0
 11 35  1  0
 13 36  1  0
 15 16  2  0
 15 20  1  0
 16 17  1  0
 16 37  1  0
 17 18  2  0
 17 38  1  0
 18 19  1  0
 18 39  1  0
 19 20  2  0
 19 21  1  0
 20 40  1  0
 21 22  2  0
 21 23  1  0
 23 24  1  0
 23 25  1  0
 24 41  1  0
 24 42  1  0
 24 43  1  0
 25 44  1  0
 25 45  1  0
 25 46  1  0
M  END
>  <r_exp_dg>  (1) 
-10

>  <experimental dG reference units>  (1) 
kcal/mol

>  <experimental dG reference field>  (1) 
r_exp_dg

>  <kJ/mol experimental dG>  (1) 
-41.84

>  <kcal/mol experimental dG>  (1) 
-10.0

>  <AmberAM1BCCCache>  (1) 
gASVxQMAAAAAAABdlCiMFm51bXB5Ll9jb3JlLm11bHRpYXJyYXmUjAZzY2FsYXKUk5SMBW51bXB5lIwFZHR5cGWUk5SMAmY4lImIh5RSlChLA4wBPJROTk5K/////0r/////SwB0lGJDCOozDtISRu8/lIaUUpRoA2gJQwiD29ZHaREhQJSGlFKUaANoCUMID6da6YWOsL+UhpRSlGgDaAlDCLnkGJ3D9uq/lIaUUpRoA2gJQwjHiN56ocrVv5SGlFKUaANoCUMIHco5EcpWA8CUhpRSlGgDaAlDCC0JnMzewvW/lIaUUpRoA2gJQwgCB6LE0PMCwJSGlFKUaANoCUMIq4kib+SC6r+UhpRSlGgDaAlDCAXD8401nwPAlIaUUpRoA2gJQwhDsXus/z4AwJSGlFKUaANoCUMISUQUaekUEMCUhpRSlGgDaAlDCPtbtPp9oPq/lIaUUpRoA2gJQwiCUCiI6+gewJSGlFKUaANoCUMIhcEOlUWH07+UhpRSlGgDaAlDCM9xialOofO/lIaUUpRoA2gJQwjF1YRhi9r5v5SGlFKUaANoCUMIoGP9oiUy9L+UhpRSlGgDaAlDCKGNnpGNpfi/lIaUUpRoA2gJQwgywk15jGzwv5SGlFKUaANoCUMI0Vd/yJDOH0CUhpRSlGgDaAlDCHzy2taXiBzAlIaUUpRoA2gJQwiW1CmiJ5QWwJSGlFKUaANoCUMIC+ejqlxB7j+UhpRSlGgDaAlDCAvno6pcQe4/lIaUUpRoA2gJQwiJ7VTWWPTrP5SGlFKUaANoCUMIie1U1lj06z+UhpRSlGgDaAlDCCKpzb7eWP4/lIaUUpRoA2gJQwgiqc2+3lj+P5SGlFKUaANoCUMI7LzSqdUdAECUhpRSlGgDaAlDCJSJWR4cu+U/lIaUUpRoA2gJQwiUiVkeHLvlP5SGlFKUaANoCUMIAoVIpNqT9T+UhpRSlGgDaAlDCAKFSKTak/U/lIaUUpRoA2gJQwgAa/LCZJ32P5SGlFKUaANoCUMIagAQ7uLCDUCUhpRSlGgDaAlDCMn0DTdkVPs/lIaUUpRoA2gJQwhYH7JK36H5P5SGlFKUaANoCUMIKREmRLYy+j+UhpRSlGgDaAlDCN/h/diCFfw/lIaUUpRoA2gJQwhWW5SQJWPgP5SGlFKUaANoCUMIVluUkCVj4D+UhpRSlGgDaAlDCFZblJAlY+A/lIaUUpRoA2gJQwhWW5SQJWPgP5SGlFKUaANoCUMIVluUkCVj4D+UhpRSlGgDaAlDCFZblJAlY+A/lIaUUpRlLg==

$$$$
cmpd 2 (methyl)
     RDKit          3D

 39 41  0  0  1  0  0  0  0  0999 V2000
    7.9430   -7.6183   -3.3662 C   0  0  0  0  0  0  0  0  0  0  0  0
    7.0411   -6.8166   -1.1792 C   0  0  0  0  0  0  0  0  0  0  0  0
    8.1680   -8.7266   -0.0602 C   0  0  0  0  0  0  0  0  0  0  0  0
    7.6951   -8.1507   -4.6416 C   0  0  0  0  0  0  0  0  0  0  0  0
    5.5388   -7.7685   -2.9419 C   0  0  0  0  0  0  0  0  0  0  0  0
    3.9261   -8.6657   -4.6001 C   0  0  0  0  0  0  0  0  0  0  0  0
    6.4256   -8.5538   -5.0346 C   0  0  0  0  0  0  0  0  0  0  0  0
    2.9791   -9.2007   -3.6636 C   0  0  0  0  0  0  0  0  0  0  0  0
    0.8286  -10.0171   -2.8649 C   0  0  0  0  0  0  0  0  0  0  0  0
   -0.0747   -9.4181   -5.4525 O   0  0  0  0  0  0  0  0  0  0  0  0
    1.1012   -9.3008   -5.2657 C   0  0  0  0  0  0  0  0  0  0  0  0
    1.6889   -9.4626   -3.9592 N   0  0  0  0  0  0  0  0  0  0  0  0
    2.0805   -8.8158   -6.2531 C   0  0  0  0  0  0  0  0  0  0  0  0
    1.7897   -8.5308   -7.6114 N   0  0  0  0  0  0  0  0  0  0  0  0
    2.9657   -8.1125   -8.0472 C   0  0  0  0  0  0  0  0  0  0  0  0
    4.0864   -8.0193   -7.2061 C   0  0  0  0  0  0  0  0  0  0  0  0
    3.4253   -8.5197   -5.9939 C   0  0  0  0  0  0  0  0  0  0  0  0
    5.3215   -8.3826   -4.2140 C   0  0  0  0  0  0  0  0  0  0  0  0
    6.8378   -7.4280   -2.5337 C   0  0  0  0  0  0  0  0  0  0  0  0
    6.6646   -5.6978   -0.8428 O   0  0  0  0  0  0  0  0  0  0  0  0
    7.6501   -7.3632   -0.1265 N   0  0  0  0  0  0  0  0  0  0  0  0
    7.9068   -6.6948    1.1459 C   0  0  0  0  0  0  0  0  0  0  0  0
    8.9392   -7.3379   -3.0554 H   0  0  0  0  0  0  0  0  0  0  0  0
    7.9803   -9.2331   -1.0070 H   0  0  0  0  0  0  0  0  0  0  0  0
    9.2408   -8.6989    0.1306 H   0  0  0  0  0  0  0  0  0  0  0  0
    7.6695   -9.2659    0.7454 H   0  0  0  0  0  0  0  0  0  0  0  0
    8.5233   -8.2936   -5.3204 H   0  0  0  0  0  0  0  0  0  0  0  0
    4.7102   -7.5666   -2.2793 H   0  0  0  0  0  0  0  0  0  0  0  0
    6.3021   -8.9995   -6.0098 H   0  0  0  0  0  0  0  0  0  0  0  0
    3.2269   -9.4004   -2.6317 H   0  0  0  0  0  0  0  0  0  0  0  0
   -0.1808  -10.1788   -3.2430 H   0  0  0  0  0  0  0  0  0  0  0  0
    1.2439  -10.9644   -2.5210 H   0  0  0  0  0  0  0  0  0  0  0  0
    0.7970   -9.3115   -2.0347 H   0  0  0  0  0  0  0  0  0  0  0  0
    0.9009   -8.6297   -8.0838 H   0  0  0  0  0  0  0  0  0  0  0  0
    2.9729   -7.8334   -9.0917 H   0  0  0  0  0  0  0  0  0  0  0  0
    5.0877   -7.6676   -7.4075 H   0  0  0  0  0  0  0  0  0  0  0  0
    7.5229   -5.6755    1.1048 H   0  0  0  0  0  0  0  0  0  0  0  0
    7.4089   -7.2385    1.9488 H   0  0  0  0  0  0  0  0  0  0  0  0
    8.9802   -6.6715    1.3341 H   0  0  0  0  0  0  0  0  0  0  0  0
  1  4  2  0
  1 19  1  0
  1 23  1  0
  2 19  1  0
  2 20  2  0
  2 21  1  0
  3 21  1  0
  3 24  1  0
  3 25  1  0
  3 26  1  0
  4  7  1  0
  4 27  1  0
  5 18  1  0
  5 19  2  0
  5 28  1  0
  6  8  2  0
  6 17  1  0
  6 18  1  0
  7 18  2  0
  7 29  1  0
  8 12  1  0
  8 30  1  0
  9 12  1  0
  9 31  1  0
  9 32  1  0
  9 33  1  0
 10 11  2  0
 11 12  1  0
 11 13  1  0
 13 14  1  0
 13 17  2  0
 14 15  1  0
 14 34  1  0
 15 16  2  0
 15 35  1  0
 16 17  1  0
 16 36  1  0
 21 22  1  0
 22 37  1  0
 22 38  1  0
 22 39  1  0
M  END
>  <r_exp_dg>  (2) 
-9.86

>  <experimental dG reference units>  (2) 
kcal/mol

>  <experimental dG reference field>  (2) 
r_exp_dg

>  <kJ/mol experimental dG>  (2) 
-41.254239999999996

>  <kcal/mol experimental dG>  (2) 
-9.86

>  <AmberAM1BCCCache>  (2) 
gASVQAMAAAAAAABdlCiMFm51bXB5Ll9jb3JlLm11bHRpYXJyYXmUjAZzY2FsYXKUk5SMBW51bXB5lIwFZHR5cGWUk5SMAmY4lImIh5RSlChLA4wBPJROTk5K/////0r/////SwB0lGJDCKILsJ1sMPS/lIaUUpRoA2gJQwgvsJQ127YfQJSGlFKUaANoCUMITJK6XRZ17j+UhpRSlGgDaAlDCMh9N1zS2Pm/lIaUUpRoA2gJQwjuboTLizrwv5SGlFKUaANoCUMIZIC+Ctfu57+UhpRSlGgDaAlDCNEZPKSVn/O/lIaUUpRoA2gJQwid+IOz34S8v5SGlFKUaANoCUMI4iS39mic6D+UhpRSlGgDaAlDCFP58zCP9B7AlIaUUpRoA2gJQwjrBZBdqRchQJSGlFKUaANoCUMIHO3fEY0gEMCUhpRSlGgDaAlDCL5ff5mswgLAlIaUUpRoA2gJQwj+A2f1xJ76v5SGlFKUaANoCUMIL7FOxyXB9b+UhpRSlGgDaAlDCDcl2RGCDQPAlIaUUpRoA2gJQwjoFZkH3ITWv5SGlFKUaANoCUMIuzu5w54C1b+UhpRSlGgDaAlDCKQ1UYzUo/i/lIaUUpRoA2gJQwiUo80Yvj8cwJSGlFKUaANoCUMIOnwUNd2rFsCUhpRSlGgDaAlDCEySul0Wde4/lIaUUpRoA2gJQwgmaXNJbzT6P5SGlFKUaANoCUMIChCz8k824D+UhpRSlGgDaAlDCAoQs/JPNuA/lIaUUpRoA2gJQwgKELPyTzbgP5SGlFKUaANoCUMIVXf/T5ij+T+UhpRSlGgDaAlDCCI1x4aDR/w/lIaUUpRoA2gJQwjGTFs8HVb7P5SGlFKUaANoCUMIOCK3KKII/T+UhpRSlGgDaAlDCBkw7HkdH+Y/lIaUUpRoA2gJQwgZMOx5HR/mP5SGlFKUaANoCUMIGTDseR0f5j+UhpRSlGgDaAlDCGmstnC/ww1AlIaUUpRoA2gJQwjraHkssh4AQJSGlFKUaANoCUMIqvcSFSe7/j+UhpRSlGgDaAlDCAoQs/JPNuA/lIaUUpRoA2gJQwgKELPyTzbgP5SGlFKUaANoCUMIChCz8k824D+UhpRSlGUu

$$$$
cmpd 3 (Allyl)
     RDKit          3D

 43 45  0  0  1  0  0  0  0  0999 V2000
    0.8286  -10.0171   -2.8649 C   0  0  0  0  0  0  0  0  0  0  0  0
    1.1012   -9.3008   -5.2657 C   0  0  0  0  0  0  0  0  0  0  0  0
    2.9791   -9.2007   -3.6636 C   0  0  0  0  0  0  0  0  0  0  0  0
    3.9261   -8.6657   -4.6001 C   0  0  0  0  0  0  0  0  0  0  0  0
    3.4253   -8.5197   -5.9939 C   0  0  0  0  0  0  0  0  0  0  0  0
    4.0864   -8.0193   -7.2061 C   0  0  0  0  0  0  0  0  0  0  0  0
    2.9657   -8.1125   -8.0472 C   0  0  0  0  0  0  0  0  0  0  0  0
    2.0805   -8.8158   -6.2531 C   0  0  0  0  0  0  0  0  0  0  0  0
    0.5256   -8.7887   -1.9139 C   0  0  0  0  0  0  0  0  0  0  0  0
   -0.2364   -8.9316   -0.8202 C   0  0  0  0  0  0  0  0  0  0  0  0
    1.6889   -9.4626   -3.9592 N   0  0  0  0  0  0  0  0  0  0  0  0
    1.7897   -8.5308   -7.6114 N   0  0  0  0  0  0  0  0  0  0  0  0
   -0.0747   -9.4181   -5.4525 O   0  0  0  0  0  0  0  0  0  0  0  0
    5.3215   -8.3826   -4.2140 C   0  0  0  0  0  0  0  0  0  0  0  0
    6.4256   -8.5538   -5.0346 C   0  0  0  0  0  0  0  0  0  0  0  0
    7.6951   -8.1507   -4.6416 C   0  0  0  0  0  0  0  0  0  0  0  0
    7.9430   -7.6183   -3.3662 C   0  0  0  0  0  0  0  0  0  0  0  0
    6.8378   -7.4280   -2.5337 C   0  0  0  0  0  0  0  0  0  0  0  0
    5.5388   -7.7685   -2.9419 C   0  0  0  0  0  0  0  0  0  0  0  0
    7.0436   -6.7257   -1.2020 C   0  0  0  0  0  0  0  0  0  0  0  0
    6.4996   -5.5615   -1.1207 O   0  0  0  0  0  0  0  0  0  0  0  0
    7.5554   -7.3137   -0.2001 N   0  0  0  0  0  0  0  0  0  0  0  0
    7.9907   -8.7314   -0.2107 C   0  0  0  0  0  0  0  0  0  0  0  0
    7.5856   -6.6697    1.1406 C   0  0  0  0  0  0  0  0  0  0  0  0
   -0.1237  -10.4046   -3.2270 H   0  0  0  0  0  0  0  0  0  0  0  0
    1.3317  -10.7829   -2.2746 H   0  0  0  0  0  0  0  0  0  0  0  0
    3.2269   -9.4004   -2.6317 H   0  0  0  0  0  0  0  0  0  0  0  0
    5.0877   -7.6676   -7.4075 H   0  0  0  0  0  0  0  0  0  0  0  0
    2.9729   -7.8335   -9.0917 H   0  0  0  0  0  0  0  0  0  0  0  0
    0.9529   -7.8314   -2.1747 H   0  0  0  0  0  0  0  0  0  0  0  0
   -0.6636   -9.8889   -0.5593 H   0  0  0  0  0  0  0  0  0  0  0  0
    0.9009   -8.6298   -8.0839 H   0  0  0  0  0  0  0  0  0  0  0  0
    6.3021   -8.9995   -6.0098 H   0  0  0  0  0  0  0  0  0  0  0  0
    8.5233   -8.2936   -5.3204 H   0  0  0  0  0  0  0  0  0  0  0  0
    8.9392   -7.3379   -3.0554 H   0  0  0  0  0  0  0  0  0  0  0  0
    4.7102   -7.5666   -2.2793 H   0  0  0  0  0  0  0  0  0  0  0  0
    7.8006   -9.1625   -1.1936 H   0  0  0  0  0  0  0  0  0  0  0  0
    9.0567   -8.7858    0.0100 H   0  0  0  0  0  0  0  0  0  0  0  0
    7.4346   -9.2878    0.5439 H   0  0  0  0  0  0  0  0  0  0  0  0
    7.1210   -5.6854    1.0815 H   0  0  0  0  0  0  0  0  0  0  0  0
    7.0387   -7.2875    1.8529 H   0  0  0  0  0  0  0  0  0  0  0  0
    8.6194   -6.5643    1.4698 H   0  0  0  0  0  0  0  0  0  0  0  0
   -0.4432   -8.0932   -0.1711 H   0  0  0  0  0  0  0  0  0  0  0  0
  1  9  1  0
  1 11  1  0
  1 25  1  0
  1 26  1  0
  2  8  1  0
  2 11  1  0
  2 13  2  0
  3  4  2  0
  3 11  1  0
  3 27  1  0
  4  5  1  0
  4 14  1  0
  5  6  1  0
  5  8  2  0
  6  7  2  0
  6 28  1  0
  7 12  1  0
  7 29  1  0
  8 12  1  0
  9 10  2  0
  9 30  1  0
 10 31  1  0
 10 43  1  0
 12 32  1  0
 14 15  2  0
 14 19  1  0
 15 16  1  0
 15 33  1  0
 16 17  2  0
 16 34  1  0
 17 18  1  0
 17 35  1  0
 18 19  2  0
 18 20  1  0
 19 36  1  0
 20 21  2  0
 20 22  1  0
 22 23  1  0
 22 24  1  0
 23 37  1  0
 23 38  1  0
 23 39  1  0
 24 40  1  0
 24 41  1  0
 24 42  1  0
M  END
>  <r_exp_dg>  (3) 
-8.34

>  <experimental dG reference units>  (3) 
kcal/mol

>  <experimental dG reference field>  (3) 
r_exp_dg

>  <kJ/mol experimental dG>  (3) 
-34.89456

>  <kcal/mol experimental dG>  (3) 
-8.34

>  <AmberAM1BCCCache>  (3) 
gASVjAMAAAAAAABdlCiMFm51bXB5Ll9jb3JlLm11bHRpYXJyYXmUjAZzY2FsYXKUk5SMBW51bXB5lIwFZHR5cGWUk5SMAmY4lImIh5RSlChLA4wBPJROTk5K/////0r/////SwB0lGJDCF/4jrWEZPQ/lIaUUpRoA2gJQwg3/yO6jBchQJSGlFKUaANoCUMIKp7H4baOub+UhpRSlGgDaAlDCLjYbuO/sei/lIaUUpRoA2gJQwiNxvm4rQrYv5SGlFKUaANoCUMIe0mRTmWtAsCUhpRSlGgDaAlDCInrMjrDkfW/lIaUUpRoA2gJQwh1c+mjigsDwJSGlFKUaANoCUMIhfXgoxrxAcCUhpRSlGgDaAlDCBsteUETzwPAlIaUUpRoA2gJQwiy+5hutBQQwJSGlFKUaANoCUMI4jRDufHP+r+UhpRSlGgDaAlDCF4ECkzsDB/AlIaUUpRoA2gJQwggJUqPFEXUv5SGlFKUaANoCUMIJyB0VEeD9b+UhpRSlGgDaAlDCNu8nyYoefm/lIaUUpRoA2gJQwhAQRC5UTH0v5SGlFKUaANoCUMIh2YtUAHV+L+UhpRSlGgDaAlDCDeeEfXXEe2/lIaUUpRoA2gJQwhpoPrCxc4fQJSGlFKUaANoCUMIcK0CHi1kHMCUhpRSlGgDaAlDCNGKzZEEoBbAlIaUUpRoA2gJQwjKK35+BEPuP5SGlFKUaANoCUMIyit+fgRD7j+UhpRSlGgDaAlDCLkHi5aFqO0/lIaUUpRoA2gJQwi5B4uWhajtP5SGlFKUaANoCUMIJeNOXkxo/T+UhpRSlGgDaAlDCL5LB3NjNgBAlIaUUpRoA2gJQwi+SwdzYzYAQJSGlFKUaANoCUMI/Twb3frS+T+UhpRSlGgDaAlDCEmg7woa3fU/lIaUUpRoA2gJQwj1k8gOKasNQJSGlFKUaANoCUMIckYjjGty+T+UhpRSlGgDaAlDCLhBnzSzovk/lIaUUpRoA2gJQwiIMxMuijP6P5SGlFKUaANoCUMI9tTCVyP5/T+UhpRSlGgDaAlDCHJXKNylROA/lIaUUpRoA2gJQwhyVyjcpUTgP5SGlFKUaANoCUMIclco3KVE4D+UhpRSlGgDaAlDCHJXKNylROA/lIaUUpRoA2gJQwhyVyjcpUTgP5SGlFKUaANoCUMIclco3KVE4D+UhpRSlGgDaAlDCEmg7woa3fU/lIaUUpRlLg==

$$$$
cmpd 9 (methoxyethyl)
     RDKit          3D

 46 48  0  0  1  0  0  0  0  0999 V2000
    0.8286  -10.0171   -2.8649 C   0  0  0  0  0  0  0  0  0  0  0  0
    1.1012   -9.3008   -5.2657 C   0  0  0  0  0  0  0  0  0  0  0  0
    2.9791   -9.2007   -3.6636 C   0  0  0  0  0  0  0  0  0  0  0  0
    3.9261   -8.6657   -4.6001 C   0  0  0  0  0  0  0  0  0  0  0  0
    3.4253   -8.5197   -5.9939 C   0  0  0  0  0  0  0  0  0  0  0  0
    4.0864   -8.0193   -7.2061 C   0  0  0  0  0  0  0  0  0  0  0  0
    2.9657   -8.1125   -8.0472 C   0  0  0  0  0  0  0  0  0  0  0  0
    2.0805   -8.8158   -6.2531 C   0  0  0  0  0  0  0  0  0  0  0  0
    0.5256   -8.7887   -1.9139 C   0  0  0  0  0  0  0  0  0  0  0  0
    0.3113   -9.1614    0.3738 C   0  0  0  0  0  0  0  0  0  0  0  0
   -0.2884   -9.1758   -0.8690 O   0  0  0  0  0  0  0  0  0  0  0  0
    1.6889   -9.4626   -3.9592 N   0  0  0  0  0  0  0  0  0  0  0  0
    1.7897   -8.5308   -7.6114 N   0  0  0  0  0  0  0  0  0  0  0  0
   -0.0747   -9.4181   -5.4525 O   0  0  0  0  0  0  0  0  0  0  0  0
    5.3215   -8.3826   -4.2140 C   0  0  0  0  0  0  0  0  0  0  0  0
    6.4256   -8.5538   -5.0346 C   0  0  0  0  0  0  0  0  0  0  0  0
    7.6951   -8.1507   -4.6416 C   0  0  0  0  0  0  0  0  0  0  0  0
    7.9430   -7.6183   -3.3662 C   0  0  0  0  0  0  0  0  0  0  0  0
    6.8378   -7.4280   -2.5337 C   0  0  0  0  0  0  0  0  0  0  0  0
    5.5388   -7.7685   -2.9419 C   0  0  0  0  0  0  0  0  0  0  0  0
    7.0436   -6.7257   -1.2020 C   0  0  0  0  0  0  0  0  0  0  0  0
    6.4996   -5.5615   -1.1207 O   0  0  0  0  0  0  0  0  0  0  0  0
    7.5554   -7.3137   -0.2001 N   0  0  0  0  0  0  0  0  0  0  0  0
    7.5856   -6.6697    1.1406 C   0  0  0  0  0  0  0  0  0  0  0  0
    7.9907   -8.7314   -0.2107 C   0  0  0  0  0  0  0  0  0  0  0  0
   -0.0987  -10.4604   -3.2315 H   0  0  0  0  0  0  0  0  0  0  0  0
    1.3584  -10.8048   -2.3280 H   0  0  0  0  0  0  0  0  0  0  0  0
    3.2440   -9.3999   -2.6361 H   0  0  0  0  0  0  0  0  0  0  0  0
    5.0874   -7.6663   -7.4069 H   0  0  0  0  0  0  0  0  0  0  0  0
    2.9732   -7.8318   -9.0914 H   0  0  0  0  0  0  0  0  0  0  0  0
    0.0093   -7.9928   -2.4523 H   0  0  0  0  0  0  0  0  0  0  0  0
    1.4327   -8.3666   -1.4805 H   0  0  0  0  0  0  0  0  0  0  0  0
   -0.4080   -9.4807    1.1280 H   0  0  0  0  0  0  0  0  0  0  0  0
    1.1635   -9.8409    0.3739 H   0  0  0  0  0  0  0  0  0  0  0  0
    0.6520   -8.1513    0.6012 H   0  0  0  0  0  0  0  0  0  0  0  0
    0.9010   -8.6257   -8.0852 H   0  0  0  0  0  0  0  0  0  0  0  0
    6.3015   -8.9977   -6.0105 H   0  0  0  0  0  0  0  0  0  0  0  0
    8.5218   -8.2870   -5.3237 H   0  0  0  0  0  0  0  0  0  0  0  0
    8.9373   -7.3183   -3.0671 H   0  0  0  0  0  0  0  0  0  0  0  0
    4.7058   -7.5462   -2.2901 H   0  0  0  0  0  0  0  0  0  0  0  0
    8.3278   -7.1227    1.7978 H   0  0  0  0  0  0  0  0  0  0  0  0
    7.8353   -5.6091    1.0698 H   0  0  0  0  0  0  0  0  0  0  0  0
    6.6092   -6.7514    1.6195 H   0  0  0  0  0  0  0  0  0  0  0  0
    8.8927   -8.8475   -0.8127 H   0  0  0  0  0  0  0  0  0  0  0  0
    8.2094   -9.1087    0.7884 H   0  0  0  0  0  0  0  0  0  0  0  0
    7.2175   -9.3768   -0.6314 H   0  0  0  0  0  0  0  0  0  0  0  0
  1  9  1  0
  1 12  1  0
  1 26  1  0
  1 27  1  0
  2  8  1  0
  2 12  1  0
  2 14  2  0
  3  4  2  0
  3 12  1  0
  3 28  1  0
  4  5  1  0
  4 15  1  0
  5  6  1  0
  5  8  2  0
  6  7  2  0
  6 29  1  0
  7 13  1  0
  7 30  1  0
  8 13  1  0
  9 11  1  0
  9 31  1  0
  9 32  1  0
 10 11  1  0
 10 33  1  0
 10 34  1  0
 10 35  1  0
 13 36  1  0
 15 16  2  0
 15 20  1  0
 16 17  1  0
 16 37  1  0
 17 18  2  0
 17 38  1  0
 18 19  1  0
 18 39  1  0
 19 20  2  0
 19 21  1  0
 20 40  1  0
 21 22  2  0
 21 23  1  0
 23 24  1  0
 23 25  1  0
 24 41  1  0
 24 42  1  0
 24 43  1  0
 25 44  1  0
 25 45  1  0
 25 46  1  0
M  END
>  <r_exp_dg>  (4) 
-7.69

>  <experimental dG reference units>  (4) 
kcal/mol

>  <experimental dG reference field>  (4) 
r_exp_dg

>  <kJ/mol experimental dG>  (4) 
-32.174960000000006

>  <kcal/mol experimental dG>  (4) 
-7.690000000000001

>  <AmberAM1BCCCache>  (4) 
gASVxQMAAAAAAABdlCiMFm51bXB5Ll9jb3JlLm11bHRpYXJyYXmUjAZzY2FsYXKUk5SMBW51bXB5lIwFZHR5cGWUk5SMAmY4lImIh5RSlChLA4wBPJROTk5K/////0r/////SwB0lGJDCBWQ61O/ruw/lIaUUpRoA2gJQwiLrHC4OxghQJSGlFKUaANoCUMI9z+xM70ytr+UhpRSlGgDaAlDCKndg0INKeq/lIaUUpRoA2gJQwjrQYSrkHLWv5SGlFKUaANoCUMI/IXSToA7A8CUhpRSlGgDaAlDCDF8SfCSvPW/lIaUUpRoA2gJQwiDwHjWqvACwJSGlFKUaANoCUMI95n37VxD9D+UhpRSlGgDaAlDCA82jmilNPY/lIaUUpRoA2gJQwgoqI6OLeATwJSGlFKUaANoCUMICqH/cVYTEMCUhpRSlGgDaAlDCP/OYR4ymvq/lIaUUpRoA2gJQwjOsLbSIsMewJSGlFKUaANoCUMIvmekZ1Pw1L+UhpRSlGgDaAlDCNLkNs0Cm/O/lIaUUpRoA2gJQwjISDKFP9T5v5SGlFKUaANoCUMIo9aqxtkr9L+UhpRSlGgDaAlDCKQATLVBn/i/lIaUUpRoA2gJQwjwOX/0+DXwv5SGlFKUaANoCUMIPvx01RHEH0CUhpRSlGgDaAlDCJpRiAvhbhzAlIaUUpRoA2gJQwhXMRWrlJIWwJSGlFKUaANoCUMIBQFJY/RN7j+UhpRSlGgDaAlDCAUBSWP0Te4/lIaUUpRoA2gJQwhgzQ5ZsCvwP5SGlFKUaANoCUMIYM0OWbAr8D+UhpRSlGgDaAlDCKksGOy5v/4/lIaUUpRoA2gJQwgeNiCbKl/+P5SGlFKUaANoCUMIawP8l/sgAECUhpRSlGgDaAlDCOy3NliS2dw/lIaUUpRoA2gJQwjstzZYktncP5SGlFKUaANoCUMId3jr0xQ32z+UhpRSlGgDaAlDCHd469MUN9s/lIaUUpRoA2gJQwh3eOvTFDfbP5SGlFKUaANoCUMI6EY53AjGDUCUhpRSlGgDaAlDCICG5GpoKvs/lIaUUpRoA2gJQwhVrAQnK6j5P5SGlFKUaANoCUMIJp54IAI5+j+UhpRSlGgDaAlDCCFqzF0WTPw/lIaUUpRoA2gJQwitLPPAlU/gP5SGlFKUaANoCUMIrSzzwJVP4D+UhpRSlGgDaAlDCK0s88CVT+A/lIaUUpRoA2gJQwitLPPAlU/gP5SGlFKUaANoCUMIrSzzwJVP4D+UhpRSlGgDaAlDCK0s88CVT+A/lIaUUpRlLg==

$$$$
cmpd 6 (ethyl)
     RDKit          3D

 42 44  0  0  1  0  0  0  0  0999 V2000
    0.8286  -10.0171   -2.8649 C   0  0  0  0  0  0  0  0  0  0  0  0
    1.1012   -9.3008   -5.2657 C   0  0  0  0  0  0  0  0  0  0  0  0
    2.9791   -9.2007   -3.6636 C   0  0  0  0  0  0  0  0  0  0  0  0
    3.9261   -8.6657   -4.6001 C   0  0  0  0  0  0  0  0  0  0  0  0
    3.4253   -8.5197   -5.9939 C   0  0  0  0  0  0  0  0  0  0  0  0
    4.0864   -8.0193   -7.2061 C   0  0  0  0  0  0  0  0  0  0  0  0
    2.9657   -8.1125   -8.0472 C   0  0  0  0  0  0  0  0  0  0  0  0
    2.0805   -8.8158   -6.2531 C   0  0  0  0  0  0  0  0  0  0  0  0
    0.5256   -8.7887   -1.9139 C   0  0  0  0  0  0  0  0  0  0  0  0
    1.6889   -9.4626   -3.9592 N   0  0  0  0  0  0  0  0  0  0  0  0
    1.7897   -8.5308   -7.6114 N   0  0  0  0  0  0  0  0  0  0  0  0
   -0.0747   -9.4181   -5.4525 O   0  0  0  0  0  0  0  0  0  0  0  0
    5.3215   -8.3826   -4.2140 C   0  0  0  0  0  0  0  0  0  0  0  0
    6.4256   -8.5538   -5.0346 C   0  0  0  0  0  0  0  0  0  0  0  0
    7.6951   -8.1507   -4.6416 C   0  0  0  0  0  0  0  0  0  0  0  0
    7.9430   -7.6183   -3.3662 C   0  0  0  0  0  0  0  0  0  0  0  0
    6.8378   -7.4280   -2.5337 C   0  0  0  0  0  0  0  0  0  0  0  0
    5.5388   -7.7685   -2.9419 C   0  0  0  0  0  0  0  0  0  0  0  0
    7.0436   -6.7257   -1.2020 C   0  0  0  0  0  0  0  0  0  0  0  0
    6.4996   -5.5615   -1.1207 O   0  0  0  0  0  0  0  0  0  0  0  0
    7.5554   -7.3137   -0.2001 N   0  0  0  0  0  0  0  0  0  0  0  0
    7.9907   -8.7314   -0.2107 C   0  0  0  0  0  0  0  0  0  0  0  0
    7.5856   -6.6697    1.1406 C   0  0  0  0  0  0  0  0  0  0  0  0
   -0.1085  -10.4149   -3.2543 H   0  0  0  0  0  0  0  0  0  0  0  0
    1.3469  -10.7933   -2.3019 H   0  0  0  0  0  0  0  0  0  0  0  0
    3.2269   -9.4004   -2.6317 H   0  0  0  0  0  0  0  0  0  0  0  0
    5.0877   -7.6676   -7.4075 H   0  0  0  0  0  0  0  0  0  0  0  0
    2.9729   -7.8334   -9.0917 H   0  0  0  0  0  0  0  0  0  0  0  0
   -0.1019   -9.1168   -1.0853 H   0  0  0  0  0  0  0  0  0  0  0  0
    0.9009   -8.6298   -8.0839 H   0  0  0  0  0  0  0  0  0  0  0  0
    6.3021   -8.9995   -6.0098 H   0  0  0  0  0  0  0  0  0  0  0  0
    8.5233   -8.2936   -5.3204 H   0  0  0  0  0  0  0  0  0  0  0  0
    8.9392   -7.3379   -3.0554 H   0  0  0  0  0  0  0  0  0  0  0  0
    4.7102   -7.5666   -2.2793 H   0  0  0  0  0  0  0  0  0  0  0  0
    7.8006   -9.1625   -1.1936 H   0  0  0  0  0  0  0  0  0  0  0  0
    9.0567   -8.7858    0.0100 H   0  0  0  0  0  0  0  0  0  0  0  0
    7.4346   -9.2878    0.5439 H   0  0  0  0  0  0  0  0  0  0  0  0
    7.1210   -5.6854    1.0815 H   0  0  0  0  0  0  0  0  0  0  0  0
    7.0387   -7.2875    1.8529 H   0  0  0  0  0  0  0  0  0  0  0  0
    8.6194   -6.5643    1.4698 H   0  0  0  0  0  0  0  0  0  0  0  0
    0.0074   -8.0124   -2.4769 H   0  0  0  0  0  0  0  0  0  0  0  0
    1.4628   -8.3908   -1.5245 H   0  0  0  0  0  0  0  0  0  0  0  0
  1  9  1  0
  1 10  1  0
  1 24  1  0
  1 25  1  0
  2  8  1  0
  2 10  1  0
  2 12  2  0
  3  4  2  0
  3 10  1  0
  3 26  1  0
  4  5  1  0
  4 13  1  0
  5  6  1  0
  5  8  2  0
  6  7  2  0
  6 27  1  0
  7 11  1  0
  7 28  1  0
  8 11  1  0
  9 29  1  0
  9 41  1  0
  9 42  1  0
 11 30  1  0
 13 14  2  0
 13 18  1  0
 14 15  1  0
 14 31  1  0
 15 16  2  0
 15 32  1  0
 16 17  1  0
 16 33  1  0
 17 18  2  0
 17 19  1  0
 18 34  1  0
 19 20  2  0
 19 21  1  0
 21 22  1  0
 21 23  1  0
 22 35  1  0
 22 36  1  0
 22 37  1  0
 23 38  1  0
 23 39  1  0
 23 40  1  0
M  END
>  <r_exp_dg>  (5) 
-8.53

>  <experimental dG reference units>  (5) 
kcal/mol

>  <experimental dG reference field>  (5) 
r_exp_dg

>  <kJ/mol experimental dG>  (5) 
-35.68952

>  <kcal/mol experimental dG>  (5) 
-8.53

>  <AmberAM1BCCCache>  (5) 
gASVeQMAAAAAAABdlCiMFm51bXB5Ll9jb3JlLm11bHRpYXJyYXmUjAZzY2FsYXKUk5SMBW51bXB5lIwFZHR5cGWUk5SMAmY4lImIh5RSlChLA4wBPJROTk5K/////0r/////SwB0lGJDCALH1ehUxe0/lIaUUpRoA2gJQwi/0ZAyihchQJSGlFKUaANoCUMIQfHemwWHs7+UhpRSlGgDaAlDCEedkf4Gc+m/lIaUUpRoA2gJQwg8ro/FosfVv5SGlFKUaANoCUMIhvMTkiImA8CUhpRSlGgDaAlDCItSSB8fwvW/lIaUUpRoA2gJQwgNLroZTdsCwJSGlFKUaANoCUMISSDJMHe49b+UhpRSlGgDaAlDCKFWv325FBDAlIaUUpRoA2gJQwhYpWBNvp/6v5SGlFKUaANoCUMIfGARcd8AH8CUhpRSlGgDaAlDCPvmv99GhNO/lIaUUpRoA2gJQwhytrGk1tDzv5SGlFKUaANoCUMIIh8xtMvZ+b+UhpRSlGgDaAlDCP2sqfVlMfS/lIaUUpRoA2gJQwj+1krkzaT4v5SGlFKUaANoCUMIjgv6y8xr8L+UhpRSlGgDaAlDCNdHlt+cth9AlIaUUpRoA2gJQwjsC8xu/D8cwJSGlFKUaANoCUMIkeQSixusFsCUhpRSlGgDaAlDCJVPx60jc+4/lIaUUpRoA2gJQwiVT8etI3PuP5SGlFKUaANoCUMILHcUPirU6j+UhpRSlGgDaAlDCCx3FD4q1Oo/lIaUUpRoA2gJQwjegL3QqAf9P5SGlFKUaANoCUMICludFOaJ/j+UhpRSlGgDaAlDCD6YfIA1HgBAlIaUUpRoA2gJQwg/FhN2S3bhP5SGlFKUaANoCUMIu9u5xELDDUCUhpRSlGgDaAlDCGyrYeQjVfs/lIaUUpRoA2gJQwj71QX4nqL5P5SGlFKUaANoCUMIzMd58XUz+j+UhpRSlGgDaAlDCMiTzS6KRvw/lIaUUpRoA2gJQwhUzb9CXTTgP5SGlFKUaANoCUMIVM2/Ql004D+UhpRSlGgDaAlDCFTNv0JdNOA/lIaUUpRoA2gJQwhUzb9CXTTgP5SGlFKUaANoCUMIVM2/Ql004D+UhpRSlGgDaAlDCFTNv0JdNOA/lIaUUpRoA2gJQwg/FhN2S3bhP5SGlFKUaANoCUMIPxYTdkt24T+UhpRSlGUu

$$$$
cmpd 8 (n-Butyl)
     RDKit          3D

 48 50  0  0  1  0  0  0  0  0999 V2000
    0.8286  -10.0171   -2.8649 C   0  0  0  0  0  0  0  0  0  0  0  0
    1.1012   -9.3008   -5.2657 C   0  0  0  0  0  0  0  0  0  0  0  0
    2.9791   -9.2007   -3.6636 C   0  0  0  0  0  0  0  0  0  0  0  0
    3.9261   -8.6657   -4.6001 C   0  0  0  0  0  0  0  0  0  0  0  0
    3.4253   -8.5197   -5.9939 C   0  0  0  0  0  0  0  0  0  0  0  0
    4.0864   -8.0193   -7.2061 C   0  0  0  0  0  0  0  0  0  0  0  0
    2.9657   -8.1125   -8.0472 C   0  0  0  0  0  0  0  0  0  0  0  0
    2.0805   -8.8158   -6.2531 C   0  0  0  0  0  0  0  0  0  0  0  0
    0.5256   -8.7887   -1.9139 C   0  0  0  0  0  0  0  0  0  0  0  0
    0.3644   -9.0738    0.5151 C   0  0  0  0  0  0  0  0  0  0  0  0
   -0.3359   -9.2951   -0.7929 C   0  0  0  0  0  0  0  0  0  0  0  0
    1.6889   -9.4626   -3.9592 N   0  0  0  0  0  0  0  0  0  0  0  0
    1.7897   -8.5308   -7.6114 N   0  0  0  0  0  0  0  0  0  0  0  0
   -0.0747   -9.4181   -5.4525 O   0  0  0  0  0  0  0  0  0  0  0  0
    5.3215   -8.3826   -4.2140 C   0  0  0  0  0  0  0  0  0  0  0  0
    6.4256   -8.5538   -5.0346 C   0  0  0  0  0  0  0  0  0  0  0  0
    7.6951   -8.1507   -4.6416 C   0  0  0  0  0  0  0  0  0  0  0  0
    7.9430   -7.6183   -3.3662 C   0  0  0  0  0  0  0  0  0  0  0  0
    6.8378   -7.4280   -2.5337 C   0  0  0  0  0  0  0  0  0  0  0  0
    5.5388   -7.7685   -2.9419 C   0  0  0  0  0  0  0  0  0  0  0  0
    7.0436   -6.7257   -1.2020 C   0  0  0  0  0  0  0  0  0  0  0  0
    6.4996   -5.5615   -1.1207 O   0  0  0  0  0  0  0  0  0  0  0  0
    7.5554   -7.3137   -0.2001 N   0  0  0  0  0  0  0  0  0  0  0  0
    7.5856   -6.6697    1.1406 C   0  0  0  0  0  0  0  0  0  0  0  0
    7.9907   -8.7314   -0.2107 C   0  0  0  0  0  0  0  0  0  0  0  0
   -0.1085  -10.4149   -3.2543 H   0  0  0  0  0  0  0  0  0  0  0  0
    1.3469  -10.7933   -2.3019 H   0  0  0  0  0  0  0  0  0  0  0  0
    3.2269   -9.4004   -2.6317 H   0  0  0  0  0  0  0  0  0  0  0  0
    5.0877   -7.6676   -7.4075 H   0  0  0  0  0  0  0  0  0  0  0  0
    2.9729   -7.8334   -9.0917 H   0  0  0  0  0  0  0  0  0  0  0  0
    0.0055   -8.0133   -2.4764 H   0  0  0  0  0  0  0  0  0  0  0  0
    1.4629   -8.3895   -1.5262 H   0  0  0  0  0  0  0  0  0  0  0  0
   -0.2609   -9.4413    1.3287 H   0  0  0  0  0  0  0  0  0  0  0  0
    1.3130   -9.6107    0.5147 H   0  0  0  0  0  0  0  0  0  0  0  0
    0.5500   -8.0085    0.6522 H   0  0  0  0  0  0  0  0  0  0  0  0
   -0.5214  -10.3604   -0.9300 H   0  0  0  0  0  0  0  0  0  0  0  0
   -1.2844   -8.7581   -0.7926 H   0  0  0  0  0  0  0  0  0  0  0  0
    0.9009   -8.6298   -8.0839 H   0  0  0  0  0  0  0  0  0  0  0  0
    6.3021   -8.9995   -6.0098 H   0  0  0  0  0  0  0  0  0  0  0  0
    8.5233   -8.2936   -5.3204 H   0  0  0  0  0  0  0  0  0  0  0  0
    8.9392   -7.3379   -3.0554 H   0  0  0  0  0  0  0  0  0  0  0  0
    4.7102   -7.5666   -2.2793 H   0  0  0  0  0  0  0  0  0  0  0  0
    7.1210   -5.6854    1.0815 H   0  0  0  0  0  0  0  0  0  0  0  0
    7.0387   -7.2875    1.8529 H   0  0  0  0  0  0  0  0  0  0  0  0
    8.6194   -6.5643    1.4698 H   0  0  0  0  0  0  0  0  0  0  0  0
    7.8006   -9.1625   -1.1936 H   0  0  0  0  0  0  0  0  0  0  0  0
    9.0567   -8.7858    0.0100 H   0  0  0  0  0  0  0  0  0  0  0  0
    7.4346   -9.2878    0.5439 H   0  0  0  0  0  0  0  0  0  0  0  0
  1  9  1  0
  1 12  1  0
  1 26  1  0
  1 27  1  0
  2  8  1  0
  2 12  1  0
  2 14  2  0
  3  4  2  0
  3 12  1  0
  3 28  1  0
  4  5  1  0
  4 15  1  0
  5  6  1  0
  5  8  2  0
  6  7  2  0
  6 29  1  0
  7 13  1  0
  7 30  1  0
  8 13  1  0
  9 11  1  0
  9 31  1  0
  9 32  1  0
 10 11  1  0
 10 33  1  0
 10 34  1  0
 10 35  1  0
 11 36  1  0
 11 37  1  0
 13 38  1  0
 15 16  2  0
 15 20  1  0
 16 17  1  0
 16 39  1  0
 17 18  2  0
 17 40  1  0
 18 19  1  0
 18 41  1  0
 19 20  2  0
 19 21  1  0
 20 42  1  0
 21 22  2  0
 21 23  1  0
 23 24  1  0
 23 25  1  0
 24 43  1  0
 24 44  1  0
 24 45  1  0
 25 46  1  0
 25 47  1  0
 25 48  1  0
M  END
>  <r_exp_dg>  (6) 
-8.28

>  <experimental dG reference units>  (6) 
kcal/mol

>  <experimental dG reference field>  (6) 
r_exp_dg

>  <kJ/mol experimental dG>  (6) 
-34.643519999999995

>  <kcal/mol experimental dG>  (6) 
-8.28

>  <AmberAM1BCCCache>  (6) 
gASV6wMAAAAAAABdlCiMFm51bXB5Ll9jb3JlLm11bHRpYXJyYXmUjAZzY2FsYXKUk5SMBW51bXB5lIwFZHR5cGWUk5SMAmY4lImIh5RSlChLA4wBPJROTk5K/////0r/////SwB0lGJDCGG+Ns0xxu0/lIaUUpRoA2gJQwg14dYAmBchQJSGlFKUaANoCUMIdxC3vFsCtb+UhpRSlGgDaAlDCOmlMBoqcum/lIaUUpRoA2gJQwh/v8386MXVv5SGlFKUaANoCUMIr7X7WOslA8CUhpRSlGgDaAlDCNzWF62wwfW/lIaUUpRoA2gJQwjY7d+0OfMCwJSGlFKUaANoCUMIX8AbdMKR8r+UhpRSlGgDaAlDCHL+ZD23IvK/lIaUUpRoA2gJQwjgPdiUUpjtv5SGlFKUaANoCUMI5DgU94sIEMCUhpRSlGgDaAlDCKkpMNtPn/q/lIaUUpRoA2gJQwiQQYXUwwAfwJSGlFKUaANoCUMIPfj9Fo2C07+UhpRSlGgDaAlDCMM6gTJo0PO/lIaUUpRoA2gJQwhzowBCXdn5v5SGlFKUaANoCUMITjF5g/cw9L+UhpRSlGgDaAlDCE9bGnJfpPi/lIaUUpRoA2gJQwjfj8lZXmvwv5SGlFKUaANoCUMIw2YifLi2H0CUhpRSlGgDaAlDCADtP9LgPxzAlIaUUpRoA2gJQwilxYbu/6sWwJSGlFKUaANoCUMI9EYokgB07j+UhpRSlGgDaAlDCPRGKJIAdO4/lIaUUpRoA2gJQwi5YqtHuk3rP5SGlFKUaANoCUMIuWKrR7pN6z+UhpRSlGgDaAlDCNP3aeteOP0/lIaUUpRoA2gJQwi61s2GVIr+P5SGlFKUaANoCUMIFtaUuWweAECUhpRSlGgDaAlDCII34Kkh0eI/lIaUUpRoA2gJQwiCN+CpIdHiP5SGlFKUaANoCUMIdSrXmLYi2z+UhpRSlGgDaAlDCHUq15i2Its/lIaUUpRoA2gJQwh1KteYtiLbP5SGlFKUaANoCUMI+3SUG35d4D+UhpRSlGgDaAlDCPt0lBt+XeA/lIaUUpRoA2gJQwjwG5QpVqsNQJSGlFKUaANoCUMIGyeSVpJV+z+UhpRSlGgDaAlDCKtRNmoNo/k/lIaUUpRoA2gJQwh8Q6pj5DP6P5SGlFKUaANoCUMIdw/+oPhG/D+UhpRSlGgDaAlDCLPEICc6NeA/lIaUUpRoA2gJQwizxCAnOjXgP5SGlFKUaANoCUMIs8QgJzo14D+UhpRSlGgDaAlDCLPEICc6NeA/lIaUUpRoA2gJQwizxCAnOjXgP5SGlFKUaANoCUMIs8QgJzo14D+UhpRSlGUu

$$$$
cmpd 7 (n-propyl)
     RDKit          3D

 45 47  0  0  1  0  0  0  0  0999 V2000
    0.8286  -10.0171   -2.8649 C   0  0  0  0  0  0  0  0  0  0  0  0
    1.1012   -9.3008   -5.2657 C   0  0  0  0  0  0  0  0  0  0  0  0
    2.9791   -9.2007   -3.6636 C   0  0  0  0  0  0  0  0  0  0  0  0
    3.9261   -8.6657   -4.6001 C   0  0  0  0  0  0  0  0  0  0  0  0
    3.4253   -8.5197   -5.9939 C   0  0  0  0  0  0  0  0  0  0  0  0
    4.0864   -8.0193   -7.2061 C   0  0  0  0  0  0  0  0  0  0  0  0
    2.9657   -8.1125   -8.0472 C   0  0  0  0  0  0  0  0  0  0  0  0
    2.0805   -8.8158   -6.2531 C   0  0  0  0  0  0  0  0  0  0  0  0
    0.5256   -8.7887   -1.9139 C   0  0  0  0  0  0  0  0  0  0  0  0
   -0.3359   -9.2951   -0.7929 C   0  0  0  0  0  0  0  0  0  0  0  0
    1.6889   -9.4626   -3.9592 N   0  0  0  0  0  0  0  0  0  0  0  0
    1.7897   -8.5308   -7.6114 N   0  0  0  0  0  0  0  0  0  0  0  0
   -0.0747   -9.4181   -5.4525 O   0  0  0  0  0  0  0  0  0  0  0  0
    5.3215   -8.3826   -4.2140 C   0  0  0  0  0  0  0  0  0  0  0  0
    6.4256   -8.5538   -5.0346 C   0  0  0  0  0  0  0  0  0  0  0  0
    7.6951   -8.1507   -4.6416 C   0  0  0  0  0  0  0  0  0  0  0  0
    7.9430   -7.6183   -3.3662 C   0  0  0  0  0  0  0  0  0  0  0  0
    6.8378   -7.4280   -2.5337 C   0  0  0  0  0  0  0  0  0  0  0  0
    5.5388   -7.7685   -2.9419 C   0  0  0  0  0  0  0  0  0  0  0  0
    7.0436   -6.7257   -1.2020 C   0  0  0  0  0  0  0  0  0  0  0  0
    6.4996   -5.5615   -1.1207 O   0  0  0  0  0  0  0  0  0  0  0  0
    7.5554   -7.3137   -0.2001 N   0  0  0  0  0  0  0  0  0  0  0  0
    7.5856   -6.6697    1.1406 C   0  0  0  0  0  0  0  0  0  0  0  0
    7.9907   -8.7314   -0.2107 C   0  0  0  0  0  0  0  0  0  0  0  0
   -0.1085  -10.4149   -3.2543 H   0  0  0  0  0  0  0  0  0  0  0  0
    1.3469  -10.7933   -2.3019 H   0  0  0  0  0  0  0  0  0  0  0  0
    3.2269   -9.4004   -2.6317 H   0  0  0  0  0  0  0  0  0  0  0  0
    5.0877   -7.6676   -7.4075 H   0  0  0  0  0  0  0  0  0  0  0  0
    2.9729   -7.8334   -9.0917 H   0  0  0  0  0  0  0  0  0  0  0  0
    0.0055   -8.0133   -2.4764 H   0  0  0  0  0  0  0  0  0  0  0  0
    1.4629   -8.3895   -1.5262 H   0  0  0  0  0  0  0  0  0  0  0  0
   -0.5671   -8.4748   -0.1134 H   0  0  0  0  0  0  0  0  0  0  0  0
   -1.2616   -9.7009   -1.2009 H   0  0  0  0  0  0  0  0  0  0  0  0
    0.1959  -10.0770   -0.2508 H   0  0  0  0  0  0  0  0  0  0  0  0
    0.9009   -8.6298   -8.0839 H   0  0  0  0  0  0  0  0  0  0  0  0
    6.3022   -8.9995   -6.0098 H   0  0  0  0  0  0  0  0  0  0  0  0
    8.5233   -8.2936   -5.3204 H   0  0  0  0  0  0  0  0  0  0  0  0
    8.9392   -7.3379   -3.0554 H   0  0  0  0  0  0  0  0  0  0  0  0
    4.7102   -7.5666   -2.2793 H   0  0  0  0  0  0  0  0  0  0  0  0
    7.1210   -5.6854    1.0815 H   0  0  0  0  0  0  0  0  0  0  0  0
    7.0387   -7.2875    1.8529 H   0  0  0  0  0  0  0  0  0  0  0  0
    8.6194   -6.5643    1.4698 H   0  0  0  0  0  0  0  0  0  0  0  0
    7.8006   -9.1625   -1.1936 H   0  0  0  0  0  0  0  0  0  0  0  0
    9.0567   -8.7858    0.0100 H   0  0  0  0  0  0  0  0  0  0  0  0
    7.4346   -9.2878    0.5439 H   0  0  0  0  0  0  0  0  0  0  0  0
  1  9  1  0
  1 11  1  0
  1 25  1  0
  1 26  1  0
  2  8  1  0
  2 11  1  0
  2 13  2  0
  3  4  2  0
  3 11  1  0
  3 27  1  0
  4  5  1  0
  4 14  1  0
  5  6  1  0
  5  8  2  0
  6  7  2  0
  6 28  1  0
  7 12  1  0
  7 29  1  0
  8 12  1  0
  9 10  1  0
  9 30  1  0
  9 31  1  0
 10 32  1  0
 10 33  1  0
 10 34  1  0
 12 35  1  0
 14 15  2  0
 14 19  1  0
 15 16  1  0
 15 36  1  0
 16 17  2  0
 16 37  1  0
 17 18  1  0
 17 38  1  0
 18 19  2  0
 18 20  1  0
 19 39  1  0
 20 21  2  0
 20 22  1  0
 22 23  1  0
 22 24  1  0
 23 40  1  0
 23 41  1  0
 23 42  1  0
 24 43  1  0
 24 44  1  0
 24 45  1  0
M  END
>  <r_exp_dg>  (7) 
-8.12

>  <experimental dG reference units>  (7) 
kcal/mol

>  <experimental dG reference field>  (7) 
r_exp_dg

>  <kJ/mol experimental dG>  (7) 
-33.97408

>  <kcal/mol experimental dG>  (7) 
-8.12

>  <AmberAM1BCCCache>  (7) 
gASVsgMAAAAAAABdlCiMFm51bXB5Ll9jb3JlLm11bHRpYXJyYXmUjAZzY2FsYXKUk5SMBW51bXB5lIwFZHR5cGWUk5SMAmY4lImIh5RSlChLA4wBPJROTk5K/////0r/////SwB0lGJDCOOCcCHLxe0/lIaUUpRoA2gJQwh+fRqWkRchQJSGlFKUaANoCUMIlMbIXs6Htr+UhpRSlGgDaAlDCGbh9sWQcum/lIaUUpRoA2gJQwh8NlpUtsbVv5SGlFKUaANoCUMIj0TtAwUmA8CUhpRSlGgDaAlDCJr0+gLkwfW/lIaUUpRoA2gJQwi5fNFfU/MCwJSGlFKUaANoCUMIY9l6cj3C8r+UhpRSlGgDaAlDCKYlUEJbwvG/lIaUUpRoA2gJQwhTAI3MmAgQwJSGlFKUaANoCUMIaUcTMYOf+r+UhpRSlGgDaAlDCP8I/qnQAB/AlIaUUpRoA2gJQwg6b4puWoPTv5SGlFKUaANoCUMIgVhkiJvQ87+UhpRSlGgDaAlDCDPB45eQ2fm/lIaUUpRoA2gJQwgMT1zZKjH0v5SGlFKUaANoCUMID3n9x5Kk+L+UhpRSlGgDaAlDCJ6trK+Ra/C/lIaUUpRoA2gJQwhUn6mmq7YfQJSGlFKUaANoCUMIb7S4p+0/HMCUhpRSlGgDaAlDCBWN/8MMrBbAlIaUUpRoA2gJQwh3C2LmmXPuP5SGlFKUaANoCUMIdwti5plz7j+UhpRSlGgDaAlDCFMuKx/oBOs/lIaUUpRoA2gJQwhTLisf6ATrP5SGlFKUaANoCUMIE9qGlSs4/T+UhpRSlGgDaAlDCPm46jAhiv4/lIaUUpRoA2gJQwg2R6MOUx4AQJSGlFKUaANoCUMIp/lX0t7o4j+UhpRSlGgDaAlDCKf5V9Le6OI/lIaUUpRoA2gJQwjQzGhe3STdP5SGlFKUaANoCUMI0MxoXt0k3T+UhpRSlGgDaAlDCNDMaF7dJN0/lIaUUpRoA2gJQwiziuBSYMMNQJSGlFKUaANoCUMIWwmvAF9V+z+UhpRSlGgDaAlDCOszUxTaovk/lIaUUpRoA2gJQwi7JccNsTP6P5SGlFKUaANoCUMIt/EaS8VG/D+UhpRSlGgDaAlDCDWJWnvTNOA/lIaUUpRoA2gJQwg1iVp70zTgP5SGlFKUaANoCUMINYlae9M04D+UhpRSlGgDaAlDCDWJWnvTNOA/lIaUUpRoA2gJQwg1iVp70zTgP5SGlFKUaANoCUMINYlae9M04D+UhpRSlGUu

$$$$
cmpd 4 (Crotyl)
     RDKit          3D

 46 48  0  0  1  0  0  0  0  0999 V2000
    0.8286  -10.0171   -2.8649 C   0  0  0  0  0  0  0  0  0  0  0  0
    1.1012   -9.3008   -5.2657 C   0  0  0  0  0  0  0  0  0  0  0  0
    2.9791   -9.2007   -3.6636 C   0  0  0  0  0  0  0  0  0  0  0  0
    3.9261   -8.6657   -4.6001 C   0  0  0  0  0  0  0  0  0  0  0  0
    3.4253   -8.5197   -5.9939 C   0  0  0  0  0  0  0  0  0  0  0  0
    4.0864   -8.0193   -7.2061 C   0  0  0  0  0  0  0  0  0  0  0  0
    2.9657   -8.1125   -8.0472 C   0  0  0  0  0  0  0  0  0  0  0  0
    2.0805   -8.8158   -6.2531 C   0  0  0  0  0  0  0  0  0  0  0  0
    0.5256   -8.7887   -1.9139 C   0  0  0  0  0  0  0  0  0  0  0  0
    0.1709   -8.9243    0.5314 C   0  0  0  0  0  0  0  0  0  0  0  0
   -0.3250   -8.9040   -0.8841 C   0  0  0  0  0  0  0  0  0  0  0  0
    1.6889   -9.4626   -3.9592 N   0  0  0  0  0  0  0  0  0  0  0  0
    1.7897   -8.5308   -7.6114 N   0  0  0  0  0  0  0  0  0  0  0  0
   -0.0747   -9.4181   -5.4525 O   0  0  0  0  0  0  0  0  0  0  0  0
    5.3215   -8.3826   -4.2140 C   0  0  0  0  0  0  0  0  0  0  0  0
    6.4256   -8.5538   -5.0346 C   0  0  0  0  0  0  0  0  0  0  0  0
    7.6951   -8.1507   -4.6416 C   0  0  0  0  0  0  0  0  0  0  0  0
    7.9430   -7.6183   -3.3662 C   0  0  0  0  0  0  0  0  0  0  0  0
    6.8378   -7.4280   -2.5337 C   0  0  0  0  0  0  0  0  0  0  0  0
    5.5388   -7.7685   -2.9419 C   0  0  0  0  0  0  0  0  0  0  0  0
    7.0436   -6.7257   -1.2020 C   0  0  0  0  0  0  0  0  0  0  0  0
    6.4996   -5.5615   -1.1207 O   0  0  0  0  0  0  0  0  0  0  0  0
    7.5554   -7.3137   -0.2001 N   0  0  0  0  0  0  0  0  0  0  0  0
    7.5856   -6.6697    1.1406 C   0  0  0  0  0  0  0  0  0  0  0  0
    7.9907   -8.7314   -0.2107 C   0  0  0  0  0  0  0  0  0  0  0  0
   -0.1085  -10.4149   -3.2543 H   0  0  0  0  0  0  0  0  0  0  0  0
    1.3469  -10.7933   -2.3019 H   0  0  0  0  0  0  0  0  0  0  0  0
    3.2269   -9.4004   -2.6317 H   0  0  0  0  0  0  0  0  0  0  0  0
    5.0877   -7.6676   -7.4075 H   0  0  0  0  0  0  0  0  0  0  0  0
    2.9729   -7.8334   -9.0917 H   0  0  0  0  0  0  0  0  0  0  0  0
    1.0266   -7.8544   -2.1216 H   0  0  0  0  0  0  0  0  0  0  0  0
   -0.6751   -9.0240    1.2114 H   0  0  0  0  0  0  0  0  0  0  0  0
    0.8476   -9.7680    0.6672 H   0  0  0  0  0  0  0  0  0  0  0  0
    0.7007   -7.9958    0.7442 H   0  0  0  0  0  0  0  0  0  0  0  0
   -1.3899   -8.9852   -1.0468 H   0  0  0  0  0  0  0  0  0  0  0  0
    0.9009   -8.6298   -8.0839 H   0  0  0  0  0  0  0  0  0  0  0  0
    6.3021   -8.9995   -6.0098 H   0  0  0  0  0  0  0  0  0  0  0  0
    8.5233   -8.2936   -5.3204 H   0  0  0  0  0  0  0  0  0  0  0  0
    8.9392   -7.3379   -3.0554 H   0  0  0  0  0  0  0  0  0  0  0  0
    4.7102   -7.5666   -2.2793 H   0  0  0  0  0  0  0  0  0  0  0  0
    7.1210   -5.6854    1.0815 H   0  0  0  0  0  0  0  0  0  0  0  0
    7.0387   -7.2875    1.8529 H   0  0  0  0  0  0  0  0  0  0  0  0
    8.6194   -6.5643    1.4698 H   0  0  0  0  0  0  0  0  0  0  0  0
    7.8006   -9.1625   -1.1936 H   0  0  0  0  0  0  0  0  0  0  0  0
    9.0567   -8.7858    0.0100 H   0  0  0  0  0  0  0  0  0  0  0  0
    7.4346   -9.2878    0.5439 H   0  0  0  0  0  0  0  0  0  0  0  0
  1  9  1  0
  1 12  1  0
  1 26  1  0
  1 27  1  0
  2  8  1  0
  2 12  1  0
  2 14  2  0
  3  4  2  0
  3 12  1  0
  3 28  1  0
  4  5  1  0
  4 15  1  0
  5  6  1  0
  5  8  2  0
  6  7  2  0
  6 29  1  0
  7 13  1  0
  7 30  1  0
  8 13  1  0
  9 11  2  0
  9 31  1  0
 10 11  1  0
 10 32  1  0
 10 33  1  0
 10 34  1  0
 11 35  1  0
 13 36  1  0
 15 16  2  0
 15 20  1  0
 16 17  1  0
 16 37  1  0
 17 18  2  0
 17 38  1  0
 18 19  1  0
 18 39  1  0
 19 20  2  0
 19 21  1  0
 20 40  1  0
 21 22  2  0
 21 23  1  0
 23 24  1  0
 23 25  1  0
 24 41  1  0
 24 42  1  0
 24 43  1  0
 25 44  1  0
 25 45  1  0
 25 46  1  0
M  END
>  <r_exp_dg>  (8) 
-8.71

>  <experimental dG reference units>  (8) 
kcal/mol

>  <experimental dG reference field>  (8) 
r_exp_dg

>  <kJ/mol experimental dG>  (8) 
-36.442640000000004

>  <kcal/mol experimental dG>  (8) 
-8.71

>  <AmberAM1BCCCache>  (8) 
gASVxQMAAAAAAABdlCiMFm51bXB5Ll9jb3JlLm11bHRpYXJyYXmUjAZzY2FsYXKUk5SMBW51bXB5lIwFZHR5cGWUk5SMAmY4lImIh5RSlChLA4wBPJROTk5K/////0r/////SwB0lGJDCN9xJ4noJvU/lIaUUpRoA2gJQwjFEFlgtRchQJSGlFKUaANoCUMIHiN/P+l1tr+UhpRSlGgDaAlDCPesDSJUcOm/lIaUUpRoA2gJQwjglFfymAXYv5SGlFKUaANoCUMIRQO9tcKsAsCUhpRSlGgDaAlDCB1figh+kPW/lIaUUpRoA2gJQwg/LRUL6AoDwJSGlFKUaANoCUMI8JL0/SUSA8CUhpRSlGgDaAlDCD2oicqboOm/lIaUUpRoA2gJQwjZCKpk3Bb9v5SGlFKUaANoCUMIl9guImMUEMCUhpRSlGgDaAlDCLyjFjD0/vq/lIaUUpRoA2gJQwgU4L7prBgfwJSGlFKUaANoCUMIXAa4JuF+07+UhpRSlGgDaAlDCLyTyyICgvW/lIaUUpRoA2gJQwi1K3OdKqj5v5SGlFKUaANoCUMIG7DjL1Rg9L+UhpRSlGgDaAlDCBzahB680/i/lIaUUpRoA2gJQwjre7ji3G/tv5SGlFKUaANoCUMIhcNkDxfPH0CUhpRSlGgDaAlDCFWKmNHbYxzAlIaUUpRoA2gJQwi2Z2NFs58WwJSGlFKUaANoCUMI5j9LitZ17j+UhpRSlGgDaAlDCOY/S4rWde4/lIaUUpRoA2gJQwgFKuSogErtP5SGlFKUaANoCUMIBSrkqIBK7T+UhpRSlGgDaAlDCJBv94+Raf0/lIaUUpRoA2gJQwj0kdsLBjcAQJSGlFKUaANoCUMI9JHbCwY3AECUhpRSlGgDaAlDCK7EP7eHBPo/lIaUUpRoA2gJQwi5qjPBLvjgP5SGlFKUaANoCUMIuaozwS744D+UhpRSlGgDaAlDCLmqM8Eu+OA/lIaUUpRoA2gJQwjKGYjefZ/2P5SGlFKUaANoCUMIK9qcp8urDUCUhpRSlGgDaAlDCCPOR2b4o/k/lIaUUpRoA2gJQwgjzkdm+KP5P5SGlFKUaANoCUMI9L+7X880+j+UhpRSlGgDaAlDCGFha4lo+v0/lIaUUpRoA2gJQwhJcHk/MEfgP5SGlFKUaANoCUMISXB5PzBH4D+UhpRSlGgDaAlDCElweT8wR+A/lIaUUpRoA2gJQwhJcHk/MEfgP5SGlFKUaANoCUMISXB5PzBH4D+UhpRSlGgDaAlDCElweT8wR+A/lIaUUpRlLg==

$$$$
