47charg
     RDKit          3D

 47 49  0  0  1  0  0  0  0  0999 V2000
   75.7005   -8.3852   71.6130 Cl  0  0  0  0  0  0  0  0  0  0  0  0
   75.0789   -8.7869   70.0563 C   0  0  0  0  0  0  0  0  0  0  0  0
   75.1489   -7.8599   69.0204 C   0  0  0  0  0  0  0  0  0  0  0  0
   74.6410   -8.1753   67.7631 C   0  0  0  0  0  0  0  0  0  0  0  0
   74.0387   -9.4206   67.5315 C   0  0  0  0  0  0  0  0  0  0  0  0
   73.4762   -9.7924   66.1600 C   0  0  0  0  0  0  0  0  0  0  0  0
   73.6963   -8.8331   65.0704 N   0  0  0  0  0  0  0  0  0  0  0  0
   74.7788   -8.7751   64.2647 C   0  0  0  0  0  0  0  0  0  0  0  0
   75.6048   -9.6817   64.2760 O   0  0  0  0  0  0  0  0  0  0  0  0
   74.9022   -7.6620   63.4857 N   0  0  0  0  0  0  0  0  0  0  0  0
   76.1664   -7.4522   62.7493 C   0  0  0  0  0  0  0  0  0  0  0  0
   75.8128   -7.1669   61.2763 C   0  0  0  0  0  0  0  0  0  0  0  0
   74.8472   -5.9577   61.0977 C   0  0  0  0  0  0  0  0  0  0  0  0
   74.2182   -5.4890   62.4247 C   0  0  0  0  0  0  0  0  0  0  0  0
   73.8473   -6.6181   63.4083 C   0  0  0  0  0  0  0  0  0  0  0  0
   75.3651   -4.8270   60.3599 O   0  0  0  0  0  0  0  0  0  0  0  0
   76.2740   -3.9267   60.9065 C   0  0  0  0  0  0  0  0  0  0  0  0
   77.3476   -4.3079   61.7096 C   0  0  0  0  0  0  0  0  0  0  0  0
   78.2901   -3.3823   62.1528 C   0  0  0  0  0  0  0  0  0  0  0  0
   78.1673   -2.0300   61.8192 C   0  0  0  0  0  0  0  0  0  0  0  0
   77.0788   -1.6340   61.0354 C   0  0  0  0  0  0  0  0  0  0  0  0
   76.1450   -2.5714   60.5960 C   0  0  0  0  0  0  0  0  0  0  0  0
   73.9548  -10.3439   68.5892 C   0  0  0  0  0  0  0  0  0  0  0  0
   73.1947  -11.8871   68.3895 Cl  0  0  0  0  0  0  0  0  0  0  0  0
   74.4831  -10.0273   69.8408 C   0  0  0  0  0  0  0  0  0  0  0  0
   75.5672   -6.8823   69.2010 H   0  0  0  0  0  0  0  0  0  0  0  0
   74.7029   -7.4307   66.9829 H   0  0  0  0  0  0  0  0  0  0  0  0
   72.4013   -9.9424   66.2607 H   0  0  0  0  0  0  0  0  0  0  0  0
   73.9110  -10.7584   65.9167 H   0  0  0  0  0  0  0  0  0  0  0  0
   72.9914   -7.9700   65.0968 H   0  0  0  0  0  0  0  0  0  0  0  0
   76.8385   -8.3071   62.8024 H   0  0  0  0  0  0  0  0  0  0  0  0
   76.6889   -6.6115   63.2029 H   0  0  0  0  0  0  0  0  0  0  0  0
   75.3693   -8.0660   60.8512 H   0  0  0  0  0  0  0  0  0  0  0  0
   76.7414   -7.0121   60.6988 H   0  0  0  0  0  0  0  0  0  0  0  0
   74.0157   -6.3331   60.4785 H   0  0  0  0  0  0  0  0  0  0  0  0
   73.3405   -4.8745   62.2212 H   0  0  0  0  0  0  0  0  0  0  0  0
   74.9236   -4.8191   62.9476 H   0  0  0  0  0  0  0  0  0  0  0  0
   73.7291   -6.1692   64.3923 H   0  0  0  0  0  0  0  0  0  0  0  0
   72.9002   -7.0775   63.1206 H   0  0  0  0  0  0  0  0  0  0  0  0
   79.1217   -3.7050   62.7648 H   0  0  0  0  0  0  0  0  0  0  0  0
   76.9665   -0.5902   60.7744 H   0  0  0  0  0  0  0  0  0  0  0  0
   74.4186  -10.7419   70.6485 H   0  0  0  0  0  0  0  0  0  0  0  0
   77.5047   -5.3295   61.9735 H   0  0  0  0  0  0  0  0  0  0  0  0
   75.3088   -2.2103   60.0330 H   0  0  0  0  0  0  0  0  0  0  0  0
   79.1764   -1.0273   62.3008 C   0  0  0  0  0  0  0  0  0  0  0  0
   79.1666    0.1115   61.7778 O   0  0  0  0  0  0  0  0  0  0  0  0
   79.9701   -1.3820   63.2034 O   0  0  0  0  0  0  0  0  0  0  0  0
  1  2  1  0
  2  3  2  0
  2 25  1  0
  3  4  1  0
  3 26  1  0
  4  5  2  0
  4 27  1  0
  5  6  1  0
  5 23  1  0
  6  7  1  0
  6 28  1  0
  6 29  1  0
  7  8  1  0
  7 30  1  0
  8  9  2  0
  8 10  1  0
 10 11  1  0
 10 15  1  0
 11 12  1  0
 11 31  1  0
 11 32  1  0
 12 13  1  0
 12 33  1  0
 12 34  1  0
 13 14  1  0
 13 16  1  0
 13 35  1  0
 14 15  1  0
 14 36  1  0
 14 37  1  0
 15 38  1  0
 15 39  1  0
 16 17  1  0
 17 18  2  0
 17 22  1  0
 18 19  1  0
 18 43  1  0
 19 20  2  0
 19 40  1  0
 20 21  1  0
 20 45  1  0
 21 22  2  0
 21 41  1  0
 22 44  1  0
 23 24  1  0
 23 25  2  0
 25 42  1  0
 45 46  1  0
 45 47  2  0
M  CHG  1  46  -1
M  END
>  <r_exp_dg>  (1) 
-11.25

>  <experimental dG reference units>  (1) 
kcal/mol

>  <experimental dG reference field>  (1) 
r_exp_dg

>  <kJ/mol experimental dG>  (1) 
-47.07

>  <kcal/mol experimental dG>  (1) 
-11.25

>  <AmberAM1BCCCache>  (1) 
gASV2AMAAAAAAABdlCiMFm51bXB5Ll9jb3JlLm11bHRpYXJyYXmUjAZzY2FsYXKUk5SMBW51bXB5lIwFZHR5cGWUk5SMAmY4lImIh5RSlChLA4wBPJROTk5K/////0r/////SwB0lGJDCLR2l6S00PG/lIaUUpRoA2gJQwilWPzfJp/UP5SGlFKUaANoCUMIbXEQKOkm+L+UhpRSlGgDaAlDCDISmcdkvfG/lIaUUpRoA2gJQwhdZ3Mh4IL2v5SGlFKUaANoCUMIjsBFnkXd9j+UhpRSlGgDaAlDCK5Z/9q4CBnAlIaUUpRoA2gJQwi84pAsLn4hQJSGlFKUaANoCUMIYot7pE04H8CUhpRSlGgDaAlDCILVIvW0HRXAlIaUUpRoA2gJQwiHQ7NlJNnvP5SGlFKUaANoCUMI9CMRqZod9b+UhpRSlGgDaAlDCFwTXszkuvs/lIaUUpRoA2gJQwj0IxGpmh31v5SGlFKUaANoCUMIh0OzZSTZ7z+UhpRSlGgDaAlDCBgschFEpBDAlIaUUpRoA2gJQwhr2N/3zb3hP5SGlFKUaANoCUMIl8lpiwiCAMCUhpRSlGgDaAlDCOv8xj2nlvK/lIaUUpRoA2gJQwjqDBJLmRP4v5SGlFKUaANoCUMI6/zGPaeW8r+UhpRSlGgDaAlDCJfJaYsIggDAlIaUUpRoA2gJQwgT+qsJwGTYP5SGlFKUaANoCUMIKYCfUyVw8b+UhpRSlGgDaAlDCPhnCHl4h/i/lIaUUpRoA2gJQwiWYoofd6f8P5SGlFKUaANoCUMIL/bSSTuvAECUhpRSlGgDaAlDCJbSVVbvOe4/lIaUUpRoA2gJQwiW0lVW7znuP5SGlFKUaANoCUMIS9kAsRgMDECUhpRSlGgDaAlDCEvU8Pet8uM/lIaUUpRoA2gJQwhL1PD3rfLjP5SGlFKUaANoCUMI5U+AZYQ66T+UhpRSlGgDaAlDCOVPgGWEOuk/lIaUUpRoA2gJQwjyBduOvffhP5SGlFKUaANoCUMI5U+AZYQ66T+UhpRSlGgDaAlDCOVPgGWEOuk/lIaUUpRoA2gJQwhL1PD3rfLjP5SGlFKUaANoCUMIS9Tw963y4z+UhpRSlGgDaAlDCGZU/hhOOP0/lIaUUpRoA2gJQwhmVP4YTjj9P5SGlFKUaANoCUMIN0ZyEiXJ/T+UhpRSlGgDaAlDCBYIlxarDfY/lIaUUpRoA2gJQwgWCJcWqw32P5SGlFKUaANoCUMIwnOFk5doJUCUhpRSlGgDaAlDCI8JojIviiPAlIaUUpRoA2gJQwiPCaIyL4ojwJSGlFKUZS4=

$$$$
19charg
     RDKit          3D

 36 37  0  0  1  0  0  0  0  0999 V2000
   75.7005   -8.3852   71.6130 Cl  0  0  0  0  0  0  0  0  0  0  0  0
   75.0789   -8.7869   70.0563 C   0  0  0  0  0  0  0  0  0  0  0  0
   75.1489   -7.8599   69.0204 C   0  0  0  0  0  0  0  0  0  0  0  0
   74.6410   -8.1753   67.7631 C   0  0  0  0  0  0  0  0  0  0  0  0
   74.0387   -9.4206   67.5315 C   0  0  0  0  0  0  0  0  0  0  0  0
   73.4762   -9.7924   66.1600 C   0  0  0  0  0  0  0  0  0  0  0  0
   73.6963   -8.8331   65.0704 N   0  0  0  0  0  0  0  0  0  0  0  0
   74.7745   -8.7735   64.2669 C   0  0  0  0  0  0  0  0  0  0  0  0
   75.6048   -9.6816   64.2760 O   0  0  0  0  0  0  0  0  0  0  0  0
   74.9020   -7.6621   63.4859 N   0  0  0  0  0  0  0  0  0  0  0  0
   76.1664   -7.4521   62.7494 C   0  0  0  0  0  0  0  0  0  0  0  0
   75.8125   -7.1672   61.2765 C   0  0  0  0  0  0  0  0  0  0  0  0
   74.8402   -5.9752   61.0977 C   0  0  0  0  0  0  0  0  0  0  0  0
   74.2179   -5.4892   62.4243 C   0  0  0  0  0  0  0  0  0  0  0  0
   73.8472   -6.6180   63.4084 C   0  0  0  0  0  0  0  0  0  0  0  0
   73.9548  -10.3439   68.5892 C   0  0  0  0  0  0  0  0  0  0  0  0
   73.1947  -11.8871   68.3895 Cl  0  0  0  0  0  0  0  0  0  0  0  0
   74.4831  -10.0273   69.8408 C   0  0  0  0  0  0  0  0  0  0  0  0
   75.5672   -6.8823   69.2010 H   0  0  0  0  0  0  0  0  0  0  0  0
   74.7029   -7.4307   66.9829 H   0  0  0  0  0  0  0  0  0  0  0  0
   72.4013   -9.9424   66.2607 H   0  0  0  0  0  0  0  0  0  0  0  0
   73.9110  -10.7584   65.9167 H   0  0  0  0  0  0  0  0  0  0  0  0
   73.0664   -8.0390   65.0786 H   0  0  0  0  0  0  0  0  0  0  0  0
   76.8384   -8.3070   62.8024 H   0  0  0  0  0  0  0  0  0  0  0  0
   76.6896   -6.6097   63.2011 H   0  0  0  0  0  0  0  0  0  0  0  0
   75.3693   -8.0660   60.8512 H   0  0  0  0  0  0  0  0  0  0  0  0
   76.7276   -7.0084   60.7053 H   0  0  0  0  0  0  0  0  0  0  0  0
   74.0155   -6.3333   60.4785 H   0  0  0  0  0  0  0  0  0  0  0  0
   73.3404   -4.8745   62.2212 H   0  0  0  0  0  0  0  0  0  0  0  0
   74.9176   -4.8312   62.9341 H   0  0  0  0  0  0  0  0  0  0  0  0
   73.7291   -6.1692   64.3923 H   0  0  0  0  0  0  0  0  0  0  0  0
   72.9002   -7.0775   63.1207 H   0  0  0  0  0  0  0  0  0  0  0  0
   74.4186  -10.7419   70.6485 H   0  0  0  0  0  0  0  0  0  0  0  0
   75.3493   -4.8799   60.3259 C   0  0  0  0  0  0  0  0  0  0  0  0
   76.3614   -5.3010   59.5495 O   0  0  0  0  0  0  0  0  0  0  0  0
   74.9433   -3.7386   60.3512 O   0  0  0  0  0  0  0  0  0  0  0  0
  1  2  1  0
  2  3  2  0
  2 18  1  0
  3  4  1  0
  3 19  1  0
  4  5  2  0
  4 20  1  0
  5  6  1  0
  5 16  1  0
  6  7  1  0
  6 21  1  0
  6 22  1  0
  7  8  1  0
  7 23  1  0
  8  9  2  0
  8 10  1  0
 10 11  1  0
 10 15  1  0
 11 12  1  0
 11 24  1  0
 11 25  1  0
 12 13  1  0
 12 26  1  0
 12 27  1  0
 13 14  1  0
 13 28  1  0
 13 34  1  0
 14 15  1  0
 14 29  1  0
 14 30  1  0
 15 31  1  0
 15 32  1  0
 16 17  1  0
 16 18  2  0
 18 33  1  0
 34 35  1  0
 34 36  2  0
M  CHG  1  35  -1
M  END
>  <r_exp_dg>  (2) 
-8.24

>  <experimental dG reference units>  (2) 
kcal/mol

>  <experimental dG reference field>  (2) 
r_exp_dg

>  <kJ/mol experimental dG>  (2) 
-34.47616

>  <kcal/mol experimental dG>  (2) 
-8.24

>  <AmberAM1BCCCache>  (2) 
gASVBwMAAAAAAABdlCiMFm51bXB5Ll9jb3JlLm11bHRpYXJyYXmUjAZzY2FsYXKUk5SMBW51bXB5lIwFZHR5cGWUk5SMAmY4lImIh5RSlChLA4wBPJROTk5K/////0r/////SwB0lGJDCDOCZP7cT/O/lIaUUpRoA2gJQwgZzHeiHmjSP5SGlFKUaANoCUMINawF7UTD97+UhpRSlGgDaAlDCMo+AoaX6vG/lIaUUpRoA2gJQwjJufyb1S31v5SGlFKUaANoCUMIsJhgN8t/9j+UhpRSlGgDaAlDCHai114pLBnAlIaUUpRoA2gJQwhBxAlYHDAhQJSGlFKUaANoCUMIKceoN4PgH8CUhpRSlGgDaAlDCNk79JtlExTAlIaUUpRoA2gJQwgR72RAd07vP5SGlFKUaANoCUMI83mG/py557+UhpRSlGgDaAlDCF/UnjuhEwLAlIaUUpRoA2gJQwjzeYb+nLnnv5SGlFKUaANoCUMIEe9kQHdO7z+UhpRSlGgDaAlDCLJHBxD1r9c/lIaUUpRoA2gJQwhikPAEBr/yv5SGlFKUaANoCUMIG4tpiDoV+b+UhpRSlGgDaAlDCP41IWFEevw/lIaUUpRoA2gJQwj6TI6MwFkBQJSGlFKUaANoCUMIDJEXjyPu7D+UhpRSlGgDaAlDCAyRF48j7uw/lIaUUpRoA2gJQwgWShLVE60LQJSGlFKUaANoCUMIm8XGdiK11D+UhpRSlGgDaAlDCJvFxnYitdQ/lIaUUpRoA2gJQwijPWoJ7AvmP5SGlFKUaANoCUMIoz1qCewL5j+UhpRSlGgDaAlDCGVP4uohbNk/lIaUUpRoA2gJQwijPWoJ7AvmP5SGlFKUaANoCUMIoz1qCewL5j+UhpRSlGgDaAlDCJvFxnYitdQ/lIaUUpRoA2gJQwibxcZ2IrXUP5SGlFKUaANoCUMIFCMRA2M7/T+UhpRSlGgDaAlDCD+UAr+9pyVAlIaUUpRoA2gJQwiiqBkSONIjwJSGlFKUaANoCUMIoqgZEjjSI8CUhpRSlGUu

$$$$
20
     RDKit          3D

 38 39  0  0  1  0  0  0  0  0999 V2000
   75.7005   -8.3852   71.6130 Cl  0  0  0  0  0  0  0  0  0  0  0  0
   75.0789   -8.7869   70.0563 C   0  0  0  0  0  0  0  0  0  0  0  0
   75.1489   -7.8599   69.0204 C   0  0  0  0  0  0  0  0  0  0  0  0
   74.6410   -8.1753   67.7631 C   0  0  0  0  0  0  0  0  0  0  0  0
   74.0387   -9.4206   67.5315 C   0  0  0  0  0  0  0  0  0  0  0  0
   73.4762   -9.7924   66.1600 C   0  0  0  0  0  0  0  0  0  0  0  0
   73.6963   -8.8331   65.0704 N   0  0  0  0  0  0  0  0  0  0  0  0
   74.7745   -8.7735   64.2669 C   0  0  0  0  0  0  0  0  0  0  0  0
   75.6048   -9.6816   64.2760 O   0  0  0  0  0  0  0  0  0  0  0  0
   74.9020   -7.6621   63.4859 N   0  0  0  0  0  0  0  0  0  0  0  0
   76.1664   -7.4521   62.7494 C   0  0  0  0  0  0  0  0  0  0  0  0
   75.8125   -7.1672   61.2765 C   0  0  0  0  0  0  0  0  0  0  0  0
   74.8402   -5.9752   61.0977 C   0  0  0  0  0  0  0  0  0  0  0  0
   74.2179   -5.4892   62.4243 C   0  0  0  0  0  0  0  0  0  0  0  0
   73.8472   -6.6180   63.4084 C   0  0  0  0  0  0  0  0  0  0  0  0
   73.9548  -10.3439   68.5892 C   0  0  0  0  0  0  0  0  0  0  0  0
   73.1947  -11.8871   68.3895 Cl  0  0  0  0  0  0  0  0  0  0  0  0
   74.4831  -10.0273   69.8408 C   0  0  0  0  0  0  0  0  0  0  0  0
   75.5672   -6.8823   69.2010 H   0  0  0  0  0  0  0  0  0  0  0  0
   74.7029   -7.4307   66.9829 H   0  0  0  0  0  0  0  0  0  0  0  0
   72.4013   -9.9424   66.2607 H   0  0  0  0  0  0  0  0  0  0  0  0
   73.9110  -10.7584   65.9167 H   0  0  0  0  0  0  0  0  0  0  0  0
   73.0664   -8.0390   65.0786 H   0  0  0  0  0  0  0  0  0  0  0  0
   76.8384   -8.3070   62.8024 H   0  0  0  0  0  0  0  0  0  0  0  0
   76.6896   -6.6097   63.2011 H   0  0  0  0  0  0  0  0  0  0  0  0
   75.3693   -8.0660   60.8512 H   0  0  0  0  0  0  0  0  0  0  0  0
   76.7276   -7.0084   60.7053 H   0  0  0  0  0  0  0  0  0  0  0  0
   74.0155   -6.3333   60.4785 H   0  0  0  0  0  0  0  0  0  0  0  0
   73.3404   -4.8745   62.2212 H   0  0  0  0  0  0  0  0  0  0  0  0
   74.9176   -4.8312   62.9341 H   0  0  0  0  0  0  0  0  0  0  0  0
   73.7291   -6.1692   64.3923 H   0  0  0  0  0  0  0  0  0  0  0  0
   72.9002   -7.0775   63.1207 H   0  0  0  0  0  0  0  0  0  0  0  0
   74.4186  -10.7419   70.6485 H   0  0  0  0  0  0  0  0  0  0  0  0
   75.3493   -4.8799   60.3259 C   0  0  0  0  0  0  0  0  0  0  0  0
   76.2516   -5.2168   59.3445 N   0  0  0  0  0  0  0  0  0  0  0  0
   75.0250   -3.7131   60.5012 O   0  0  0  0  0  0  0  0  0  0  0  0
   76.4468   -6.2153   59.2892 H   0  0  0  0  0  0  0  0  0  0  0  0
   76.6629   -4.5003   58.7494 H   0  0  0  0  0  0  0  0  0  0  0  0
  1  2  1  0
  2  3  2  0
  2 18  1  0
  3  4  1  0
  3 19  1  0
  4  5  2  0
  4 20  1  0
  5  6  1  0
  5 16  1  0
  6  7  1  0
  6 21  1  0
  6 22  1  0
  7  8  1  0
  7 23  1  0
  8  9  2  0
  8 10  1  0
 10 11  1  0
 10 15  1  0
 11 12  1  0
 11 24  1  0
 11 25  1  0
 12 13  1  0
 12 26  1  0
 12 27  1  0
 13 14  1  0
 13 28  1  0
 13 34  1  0
 14 15  1  0
 14 29  1  0
 14 30  1  0
 15 31  1  0
 15 32  1  0
 16 17  1  0
 16 18  2  0
 18 33  1  0
 34 35  1  0
 34 36  2  0
 35 37  1  0
 35 38  1  0
M  END
>  <r_exp_dg>  (3) 
-9.14

>  <experimental dG reference units>  (3) 
kcal/mol

>  <experimental dG reference field>  (3) 
r_exp_dg

>  <kJ/mol experimental dG>  (3) 
-38.241760000000006

>  <kcal/mol experimental dG>  (3) 
-9.14

>  <AmberAM1BCCCache>  (3) 
gASVLQMAAAAAAABdlCiMFm51bXB5Ll9jb3JlLm11bHRpYXJyYXmUjAZzY2FsYXKUk5SMBW51bXB5lIwFZHR5cGWUk5SMAmY4lImIh5RSlChLA4wBPJROTk5K/////0r/////SwB0lGJDCB4Mn+vWyu6/lIaUUpRoA2gJQwhAWdMxu7LVP5SGlFKUaANoCUMIf1Egjmye97+UhpRSlGgDaAlDCEPyqC3oNPG/lIaUUpRoA2gJQwhAOfeAOov2v5SGlFKUaANoCUMIWS2gX3hq+D+UhpRSlGgDaAlDCN9FudlMXxnAlIaUUpRoA2gJQwhkmF2j7p4hQJSGlFKUaANoCUMIksiOyrdeHsCUhpRSlGgDaAlDCEtkJJqNGBXAlIaUUpRoA2gJQwgtF7rhoBrvP5SGlFKUaANoCUMIPGCvuajn8L+UhpRSlGgDaAlDCA33vrclL/m/lIaUUpRoA2gJQwg8YK+5qOfwv5SGlFKUaANoCUMILRe64aAa7z+UhpRSlGgDaAlDCCps44+c8dQ/lIaUUpRoA2gJQwgU5Bwnv8Xxv5SGlFKUaANoCUMIOVak5SRu97+UhpRSlGgDaAlDCAMefNyjHP0/lIaUUpRoA2gJQwghnWXyASv+P5SGlFKUaANoCUMIrLK7BFEH7z+UhpRSlGgDaAlDCKyyuwRRB+8/lIaUUpRoA2gJQwiKrXFgPqcMQJSGlFKUaANoCUMIU1lgeDBM5D+UhpRSlGgDaAlDCFNZYHgwTOQ/lIaUUpRoA2gJQwiMI4fhAHzoP5SGlFKUaANoCUMIjCOH4QB86D+UhpRSlGgDaAlDCPxJPPVb/ug/lIaUUpRoA2gJQwiMI4fhAHzoP5SGlFKUaANoCUMIjCOH4QB86D+UhpRSlGgDaAlDCFNZYHgwTOQ/lIaUUpRoA2gJQwhTWWB4MEzkP5SGlFKUaANoCUMIL/hbIOGe/j+UhpRSlGgDaAlDCI9mlN0MDh9AlIaUUpRoA2gJQwglIn4D/uYfwJSGlFKUaANoCUMI44mwqSrJHMCUhpRSlGgDaAlDCEDPohzhWQ1AlIaUUpRoA2gJQwhAz6Ic4VkNQJSGlFKUZS4=

$$$$
33
     RDKit          3D

 43 45  0  0  1  0  0  0  0  0999 V2000
   75.7005   -8.3852   71.6130 Cl  0  0  0  0  0  0  0  0  0  0  0  0
   75.0789   -8.7869   70.0563 C   0  0  0  0  0  0  0  0  0  0  0  0
   75.1489   -7.8599   69.0204 C   0  0  0  0  0  0  0  0  0  0  0  0
   74.6410   -8.1753   67.7631 C   0  0  0  0  0  0  0  0  0  0  0  0
   74.0387   -9.4206   67.5315 C   0  0  0  0  0  0  0  0  0  0  0  0
   73.4762   -9.7924   66.1600 C   0  0  0  0  0  0  0  0  0  0  0  0
   73.6963   -8.8331   65.0704 N   0  0  0  0  0  0  0  0  0  0  0  0
   74.7745   -8.7735   64.2669 C   0  0  0  0  0  0  0  0  0  0  0  0
   75.6048   -9.6816   64.2760 O   0  0  0  0  0  0  0  0  0  0  0  0
   74.9020   -7.6621   63.4859 N   0  0  0  0  0  0  0  0  0  0  0  0
   76.1664   -7.4521   62.7494 C   0  0  0  0  0  0  0  0  0  0  0  0
   75.8125   -7.1672   61.2765 C   0  0  0  0  0  0  0  0  0  0  0  0
   74.8402   -5.9752   61.0977 C   0  0  0  0  0  0  0  0  0  0  0  0
   74.2179   -5.4892   62.4243 C   0  0  0  0  0  0  0  0  0  0  0  0
   73.8472   -6.6180   63.4084 C   0  0  0  0  0  0  0  0  0  0  0  0
   75.3493   -4.8799   60.3259 O   0  0  0  0  0  0  0  0  0  0  0  0
   76.4309   -4.1205   60.7396 C   0  0  0  0  0  0  0  0  0  0  0  0
   77.2628   -4.5657   61.7246 N   0  0  0  0  0  0  0  0  0  0  0  0
   78.2752   -3.7340   62.0842 C   0  0  0  0  0  0  0  0  0  0  0  0
   78.4576   -2.4829   61.4929 C   0  0  0  0  0  0  0  0  0  0  0  0
   77.5601   -2.1286   60.4870 C   0  0  0  0  0  0  0  0  0  0  0  0
   76.5469   -2.9360   60.0940 N   0  0  0  0  0  0  0  0  0  0  0  0
   73.9548  -10.3439   68.5892 C   0  0  0  0  0  0  0  0  0  0  0  0
   73.1947  -11.8871   68.3895 Cl  0  0  0  0  0  0  0  0  0  0  0  0
   74.4831  -10.0273   69.8408 C   0  0  0  0  0  0  0  0  0  0  0  0
   75.5672   -6.8823   69.2010 H   0  0  0  0  0  0  0  0  0  0  0  0
   74.7029   -7.4307   66.9829 H   0  0  0  0  0  0  0  0  0  0  0  0
   72.4013   -9.9424   66.2607 H   0  0  0  0  0  0  0  0  0  0  0  0
   73.9110  -10.7584   65.9167 H   0  0  0  0  0  0  0  0  0  0  0  0
   73.0664   -8.0390   65.0786 H   0  0  0  0  0  0  0  0  0  0  0  0
   76.8384   -8.3070   62.8024 H   0  0  0  0  0  0  0  0  0  0  0  0
   76.6896   -6.6097   63.2011 H   0  0  0  0  0  0  0  0  0  0  0  0
   75.3693   -8.0660   60.8512 H   0  0  0  0  0  0  0  0  0  0  0  0
   76.7276   -7.0084   60.7053 H   0  0  0  0  0  0  0  0  0  0  0  0
   74.0155   -6.3333   60.4785 H   0  0  0  0  0  0  0  0  0  0  0  0
   73.3404   -4.8745   62.2212 H   0  0  0  0  0  0  0  0  0  0  0  0
   74.9176   -4.8312   62.9341 H   0  0  0  0  0  0  0  0  0  0  0  0
   73.7291   -6.1692   64.3923 H   0  0  0  0  0  0  0  0  0  0  0  0
   72.9002   -7.0775   63.1207 H   0  0  0  0  0  0  0  0  0  0  0  0
   78.9351   -4.0772   62.8676 H   0  0  0  0  0  0  0  0  0  0  0  0
   79.2491   -1.8165   61.7944 H   0  0  0  0  0  0  0  0  0  0  0  0
   77.6263   -1.1815   59.9782 H   0  0  0  0  0  0  0  0  0  0  0  0
   74.4186  -10.7419   70.6485 H   0  0  0  0  0  0  0  0  0  0  0  0
  1  2  1  0
  2  3  2  0
  2 25  1  0
  3  4  1  0
  3 26  1  0
  4  5  2  0
  4 27  1  0
  5  6  1  0
  5 23  1  0
  6  7  1  0
  6 28  1  0
  6 29  1  0
  7  8  1  0
  7 30  1  0
  8  9  2  0
  8 10  1  0
 10 11  1  0
 10 15  1  0
 11 12  1  0
 11 31  1  0
 11 32  1  0
 12 13  1  0
 12 33  1  0
 12 34  1  0
 13 14  1  0
 13 16  1  0
 13 35  1  0
 14 15  1  0
 14 36  1  0
 14 37  1  0
 15 38  1  0
 15 39  1  0
 16 17  1  0
 17 18  2  0
 17 22  1  0
 18 19  1  0
 19 20  2  0
 19 40  1  0
 20 21  1  0
 20 41  1  0
 21 22  2  0
 21 42  1  0
 23 24  1  0
 23 25  2  0
 25 43  1  0
M  END
>  <r_exp_dg>  (4) 
-10.74

>  <experimental dG reference units>  (4) 
kcal/mol

>  <experimental dG reference field>  (4) 
r_exp_dg

>  <kJ/mol experimental dG>  (4) 
-44.93616

>  <kcal/mol experimental dG>  (4) 
-10.74

>  <AmberAM1BCCCache>  (4) 
gASVjAMAAAAAAABdlCiMFm51bXB5Ll9jb3JlLm11bHRpYXJyYXmUjAZzY2FsYXKUk5SMBW51bXB5lIwFZHR5cGWUk5SMAmY4lImIh5RSlChLA4wBPJROTk5K/////0r/////SwB0lGJDCEceNWZZ8e6/lIaUUpRoA2gJQwilwPA7VfPVP5SGlFKUaANoCUMIJ1yX6JWh97+UhpRSlGgDaAlDCDsD0Pyx9/C/lIaUUpRoA2gJQwjBQBahk672v5SGlFKUaANoCUMIjtpCNVEy9z+UhpRSlGgDaAlDCMkS9e179xjAlIaUUpRoA2gJQwi6CbnklmIhQJSGlFKUaANoCUMI5F4SoIAZHsCUhpRSlGgDaAlDCNyYtsXcoxTAlIaUUpRoA2gJQwj/tGEFmA/uP5SGlFKUaANoCUMIKgl+A5vQ9L+UhpRSlGgDaAlDCJgdoz/fsPw/lIaUUpRoA2gJQwgqCX4Dm9D0v5SGlFKUaANoCUMI/7RhBZgP7j+UhpRSlGgDaAlDCFNlMZn3oRPAlIaUUpRoA2gJQwihrG8DyRMkQJSGlFKUaANoCUMIxEnOqSMQIcCUhpRSlGgDaAlDCCFFprzEjhVAlIaUUpRoA2gJQwiN8AppTS8TwJSGlFKUaANoCUMIIUWmvMSOFUCUhpRSlGgDaAlDCMRJzqkjECHAlIaUUpRoA2gJQwilwPA7VfPVP5SGlFKUaANoCUMIP1OSXjjc8b+UhpRSlGgDaAlDCE5f7yJmgfe/lIaUUpRoA2gJQwhueS98shz9P5SGlFKUaANoCUMIe1vrUXhO/j+UhpRSlGgDaAlDCNwBzCxOFO8/lIaUUpRoA2gJQwjcAcwsThTvP5SGlFKUaANoCUMII2MnQs5WDECUhpRSlGgDaAlDCAz+TGhgBeU/lIaUUpRoA2gJQwgM/kxoYAXlP5SGlFKUaANoCUMI3HhGx0JV6j+UhpRSlGgDaAlDCNx4RsdCVeo/lIaUUpRoA2gJQwjTU7wZdM/rP5SGlFKUaANoCUMI3HhGx0JV6j+UhpRSlGgDaAlDCNx4RsdCVeo/lIaUUpRoA2gJQwgM/kxoYAXlP5SGlFKUaANoCUMIDP5MaGAF5T+UhpRSlGgDaAlDCCJqfa7SW9c/lIaUUpRoA2gJQwiraXdYob39P5SGlFKUaANoCUMIImp9rtJb1z+UhpRSlGgDaAlDCC5VO93Xjv4/lIaUUpRlLg==

$$$$
