1a
     RDKit          3D

 37 39  0  0  1  0  0  0  0  0999 V2000
   26.9470   15.3250    9.1860 C   0  0  0  0  0  0  0  0  0  0  0  0
   27.6320   14.0950    9.0140 C   0  0  0  0  0  0  0  0  0  0  0  0
   28.7000   14.0480    9.1690 H   0  0  0  0  0  0  0  0  0  0  0  0
   26.9220   12.9310    8.6410 C   0  0  0  0  0  0  0  0  0  0  0  0
   27.4460   11.9960    8.5080 H   0  0  0  0  0  0  0  0  0  0  0  0
   25.5210   12.9940    8.4420 C   0  0  0  0  0  0  0  0  0  0  0  0
   24.8260   14.2190    8.6190 C   0  0  0  0  0  0  0  0  0  0  0  0
   25.5440   15.3800    8.9820 C   0  0  0  0  0  0  0  0  0  0  0  0
   25.0210   16.3170    9.1050 H   0  0  0  0  0  0  0  0  0  0  0  0
   24.8500   11.8510    8.0940 O   0  0  0  0  0  0  0  0  0  0  0  0
   23.4360   11.7100    8.2520 C   0  0  0  0  0  0  0  0  0  0  0  0
   22.7180   13.0050    7.7980 C   0  0  0  0  0  0  0  0  0  0  0  0
   21.6740   12.9400    8.1030 H   0  0  0  0  0  0  0  0  0  0  0  0
   22.7760   13.0630    6.7110 H   0  0  0  0  0  0  0  0  0  0  0  0
   23.3110   14.3040    8.3820 C   0  0  2  0  0  0  0  0  0  0  0  0
   23.0360   15.4900    7.4390 C   0  0  0  0  0  0  0  0  0  0  0  0
   22.3290   16.4140    8.1240 N   0  0  0  0  0  0  0  0  0  0  0  0
   22.0880   15.9170    9.3720 C   0  0  0  0  0  0  0  0  0  0  0  0
   22.5740   14.7390    9.5680 N   0  0  0  0  0  0  0  0  0  0  0  0
   22.4630   14.1980   10.4140 H   0  0  0  0  0  0  0  0  0  0  0  0
   27.6390   16.5060    9.5380 Br  0  0  0  0  0  0  0  0  0  0  0  0
   21.9330   17.7200    7.5940 C   0  0  0  0  0  0  0  0  0  0  0  0
   22.2760   17.8130    6.5640 H   0  0  0  0  0  0  0  0  0  0  0  0
   22.3810   18.5090    8.1990 H   0  0  0  0  0  0  0  0  0  0  0  0
   20.8470   17.8110    7.6250 H   0  0  0  0  0  0  0  0  0  0  0  0
   21.3210   16.6530   10.2630 N   0  0  0  0  0  0  0  0  0  0  0  0
   21.0940   16.2700   11.1700 H   0  0  0  0  0  0  0  0  0  0  0  0
   20.9900   17.5720   10.0050 H   0  0  0  0  0  0  0  0  0  0  0  0
   23.5150   15.6060    6.3060 O   0  0  0  0  0  0  0  0  0  0  0  0
   23.0150   10.5220    7.3590 C   0  0  0  0  0  0  0  0  0  0  0  0
   23.2670   10.7410    6.3210 H   0  0  0  0  0  0  0  0  0  0  0  0
   21.9400   10.3650    7.4470 H   0  0  0  0  0  0  0  0  0  0  0  0
   23.5410    9.6230    7.6790 H   0  0  0  0  0  0  0  0  0  0  0  0
   23.0750   11.3910    9.7230 C   0  0  0  0  0  0  0  0  0  0  0  0
   23.3700   12.2260   10.3590 H   0  0  0  0  0  0  0  0  0  0  0  0
   23.6010   10.4900   10.0390 H   0  0  0  0  0  0  0  0  0  0  0  0
   22.0000   11.2320    9.8070 H   0  0  0  0  0  0  0  0  0  0  0  0
  1  2  2  0
  1  8  1  0
  1 21  1  0
  2  3  1  0
  2  4  1  0
  4  5  1  0
  4  6  2  0
  6  7  1  0
  6 10  1  0
  7  8  2  0
  7 15  1  0
  8  9  1  0
 10 11  1  0
 11 12  1  0
 11 30  1  0
 11 34  1  0
 12 13  1  0
 12 14  1  0
 15 12  1  6
 15 16  1  0
 15 19  1  0
 16 17  1  0
 16 29  2  0
 17 18  1  0
 17 22  1  0
 18 19  2  0
 18 26  1  0
 19 20  1  0
 22 23  1  0
 22 24  1  0
 22 25  1  0
 26 27  1  0
 26 28  1  0
 30 31  1  0
 30 32  1  0
 30 33  1  0
 34 35  1  0
 34 36  1  0
 34 37  1  0
M  CHG  1  19   1
M  END
>  <r_exp_dg>  (1) 
-6.08468

>  <experimental dG reference units>  (1) 
kcal/mol

>  <experimental dG reference field>  (1) 
r_exp_dg

>  <kJ/mol experimental dG>  (1) 
-25.458301119999998

>  <kcal/mol experimental dG>  (1) 
-6.08468

$$$$
11
     RDKit          3D

 47 50  0  0  1  0  0  0  0  0999 V2000
   26.9470   15.3250    9.1860 C   0  0  0  0  0  0  0  0  0  0  0  0
   27.6320   14.0950    9.0140 C   0  0  0  0  0  0  0  0  0  0  0  0
   28.7000   14.0480    9.1690 H   0  0  0  0  0  0  0  0  0  0  0  0
   26.9220   12.9310    8.6410 C   0  0  0  0  0  0  0  0  0  0  0  0
   27.4460   11.9960    8.5080 H   0  0  0  0  0  0  0  0  0  0  0  0
   25.5210   12.9940    8.4420 C   0  0  0  0  0  0  0  0  0  0  0  0
   24.8260   14.2190    8.6190 C   0  0  0  0  0  0  0  0  0  0  0  0
   25.5440   15.3800    8.9820 C   0  0  0  0  0  0  0  0  0  0  0  0
   25.0210   16.3170    9.1050 H   0  0  0  0  0  0  0  0  0  0  0  0
   24.8500   11.8510    8.0940 O   0  0  0  0  0  0  0  0  0  0  0  0
   23.4360   11.7100    8.2520 C   0  0  0  0  0  0  0  0  0  0  0  0
   22.7180   13.0050    7.7980 C   0  0  0  0  0  0  0  0  0  0  0  0
   21.6740   12.9400    8.1030 H   0  0  0  0  0  0  0  0  0  0  0  0
   22.7760   13.0630    6.7110 H   0  0  0  0  0  0  0  0  0  0  0  0
   23.3110   14.3040    8.3820 C   0  0  2  0  0  0  0  0  0  0  0  0
   23.0360   15.4900    7.4390 C   0  0  0  0  0  0  0  0  0  0  0  0
   22.3290   16.4140    8.1240 N   0  0  0  0  0  0  0  0  0  0  0  0
   22.0880   15.9170    9.3720 C   0  0  0  0  0  0  0  0  0  0  0  0
   22.5740   14.7390    9.5680 N   0  0  0  0  0  0  0  0  0  0  0  0
   22.4630   14.1980   10.4140 H   0  0  0  0  0  0  0  0  0  0  0  0
   27.6390   16.5060    9.5380 C   0  0  0  0  0  0  0  0  0  0  0  0
   21.9330   17.7200    7.5940 C   0  0  0  0  0  0  0  0  0  0  0  0
   22.2760   17.8130    6.5640 H   0  0  0  0  0  0  0  0  0  0  0  0
   22.3810   18.5090    8.1990 H   0  0  0  0  0  0  0  0  0  0  0  0
   20.8470   17.8110    7.6250 H   0  0  0  0  0  0  0  0  0  0  0  0
   21.3210   16.6530   10.2630 N   0  0  0  0  0  0  0  0  0  0  0  0
   21.0940   16.2700   11.1700 H   0  0  0  0  0  0  0  0  0  0  0  0
   20.9900   17.5720   10.0050 H   0  0  0  0  0  0  0  0  0  0  0  0
   27.0450   17.4570   10.4030 C   0  0  0  0  0  0  0  0  0  0  0  0
   26.0630   17.2760   10.8140 H   0  0  0  0  0  0  0  0  0  0  0  0
   27.7420   18.6460   10.7270 C   0  0  0  0  0  0  0  0  0  0  0  0
   27.2890   19.3670   11.3910 H   0  0  0  0  0  0  0  0  0  0  0  0
   29.0290   18.9000   10.1880 C   0  0  0  0  0  0  0  0  0  0  0  0
   29.5540   19.8090   10.4410 H   0  0  0  0  0  0  0  0  0  0  0  0
   29.6220   17.9540    9.3150 C   0  0  0  0  0  0  0  0  0  0  0  0
   30.6020   18.1380    8.9010 H   0  0  0  0  0  0  0  0  0  0  0  0
   28.9240   16.7660    8.9880 C   0  0  0  0  0  0  0  0  0  0  0  0
   29.3720   16.0510    8.3140 H   0  0  0  0  0  0  0  0  0  0  0  0
   23.5150   15.6060    6.3060 O   0  0  0  0  0  0  0  0  0  0  0  0
   23.0150   10.5220    7.3590 C   0  0  0  0  0  0  0  0  0  0  0  0
   23.2670   10.7410    6.3210 H   0  0  0  0  0  0  0  0  0  0  0  0
   21.9400   10.3650    7.4470 H   0  0  0  0  0  0  0  0  0  0  0  0
   23.5410    9.6230    7.6790 H   0  0  0  0  0  0  0  0  0  0  0  0
   23.0750   11.3910    9.7230 C   0  0  0  0  0  0  0  0  0  0  0  0
   23.3700   12.2260   10.3590 H   0  0  0  0  0  0  0  0  0  0  0  0
   23.6010   10.4900   10.0390 H   0  0  0  0  0  0  0  0  0  0  0  0
   22.0000   11.2320    9.8070 H   0  0  0  0  0  0  0  0  0  0  0  0
  1  2  2  0
  1  8  1  0
  1 21  1  0
  2  3  1  0
  2  4  1  0
  4  5  1  0
  4  6  2  0
  6  7  1  0
  6 10  1  0
  7  8  2  0
  7 15  1  0
  8  9  1  0
 10 11  1  0
 11 12  1  0
 11 40  1  0
 11 44  1  0
 12 13  1  0
 12 14  1  0
 15 12  1  6
 15 16  1  0
 15 19  1  0
 16 17  1  0
 16 39  2  0
 17 18  1  0
 17 22  1  0
 18 19  2  0
 18 26  1  0
 19 20  1  0
 21 29  2  0
 21 37  1  0
 22 23  1  0
 22 24  1  0
 22 25  1  0
 26 27  1  0
 26 28  1  0
 29 30  1  0
 29 31  1  0
 31 32  1  0
 31 33  2  0
 33 34  1  0
 33 35  1  0
 35 36  1  0
 35 37  2  0
 37 38  1  0
 40 41  1  0
 40 42  1  0
 40 43  1  0
 44 45  1  0
 44 46  1  0
 44 47  1  0
M  CHG  1  19   1
M  END
>  <r_exp_dg>  (2) 
-8.70337

>  <experimental dG reference units>  (2) 
kcal/mol

>  <experimental dG reference field>  (2) 
r_exp_dg

>  <kJ/mol experimental dG>  (2) 
-36.41490008

>  <kcal/mol experimental dG>  (2) 
-8.70337

$$$$
12
     RDKit          3D

 47 50  0  0  1  0  0  0  0  0999 V2000
   26.9470   15.3250    9.1860 C   0  0  0  0  0  0  0  0  0  0  0  0
   27.6320   14.0950    9.0140 C   0  0  0  0  0  0  0  0  0  0  0  0
   28.7000   14.0480    9.1690 H   0  0  0  0  0  0  0  0  0  0  0  0
   26.9220   12.9310    8.6410 C   0  0  0  0  0  0  0  0  0  0  0  0
   27.4460   11.9960    8.5080 H   0  0  0  0  0  0  0  0  0  0  0  0
   25.5210   12.9940    8.4420 C   0  0  0  0  0  0  0  0  0  0  0  0
   24.8260   14.2190    8.6190 C   0  0  0  0  0  0  0  0  0  0  0  0
   25.5440   15.3800    8.9820 C   0  0  0  0  0  0  0  0  0  0  0  0
   25.0210   16.3170    9.1050 H   0  0  0  0  0  0  0  0  0  0  0  0
   24.8500   11.8510    8.0940 O   0  0  0  0  0  0  0  0  0  0  0  0
   23.4360   11.7100    8.2520 C   0  0  0  0  0  0  0  0  0  0  0  0
   22.7180   13.0050    7.7980 C   0  0  0  0  0  0  0  0  0  0  0  0
   21.6740   12.9400    8.1030 H   0  0  0  0  0  0  0  0  0  0  0  0
   22.7760   13.0630    6.7110 H   0  0  0  0  0  0  0  0  0  0  0  0
   23.3110   14.3040    8.3820 C   0  0  2  0  0  0  0  0  0  0  0  0
   23.0360   15.4900    7.4390 C   0  0  0  0  0  0  0  0  0  0  0  0
   22.3290   16.4140    8.1240 N   0  0  0  0  0  0  0  0  0  0  0  0
   22.0880   15.9170    9.3720 C   0  0  0  0  0  0  0  0  0  0  0  0
   22.5740   14.7390    9.5680 N   0  0  0  0  0  0  0  0  0  0  0  0
   22.4630   14.1980   10.4140 H   0  0  0  0  0  0  0  0  0  0  0  0
   27.6390   16.5060    9.5380 C   0  0  0  0  0  0  0  0  0  0  0  0
   21.9330   17.7200    7.5940 C   0  0  0  0  0  0  0  0  0  0  0  0
   22.2760   17.8130    6.5640 H   0  0  0  0  0  0  0  0  0  0  0  0
   22.3810   18.5090    8.1990 H   0  0  0  0  0  0  0  0  0  0  0  0
   20.8470   17.8110    7.6250 H   0  0  0  0  0  0  0  0  0  0  0  0
   21.3210   16.6530   10.2630 N   0  0  0  0  0  0  0  0  0  0  0  0
   21.0940   16.2700   11.1700 H   0  0  0  0  0  0  0  0  0  0  0  0
   20.9900   17.5720   10.0050 H   0  0  0  0  0  0  0  0  0  0  0  0
   27.0450   17.4570   10.4030 C   0  0  0  0  0  0  0  0  0  0  0  0
   26.0630   17.2760   10.8140 H   0  0  0  0  0  0  0  0  0  0  0  0
   27.7420   18.6460   10.7270 C   0  0  0  0  0  0  0  0  0  0  0  0
   29.0290   18.9000   10.1880 C   0  0  0  0  0  0  0  0  0  0  0  0
   29.5540   19.8090   10.4410 H   0  0  0  0  0  0  0  0  0  0  0  0
   29.6220   17.9540    9.3150 C   0  0  0  0  0  0  0  0  0  0  0  0
   30.6020   18.1380    8.9010 H   0  0  0  0  0  0  0  0  0  0  0  0
   28.9240   16.7660    8.9880 C   0  0  0  0  0  0  0  0  0  0  0  0
   29.3720   16.0510    8.3140 H   0  0  0  0  0  0  0  0  0  0  0  0
   23.5150   15.6060    6.3060 O   0  0  0  0  0  0  0  0  0  0  0  0
   23.0150   10.5220    7.3590 C   0  0  0  0  0  0  0  0  0  0  0  0
   23.2670   10.7410    6.3210 H   0  0  0  0  0  0  0  0  0  0  0  0
   21.9400   10.3650    7.4470 H   0  0  0  0  0  0  0  0  0  0  0  0
   23.5410    9.6230    7.6790 H   0  0  0  0  0  0  0  0  0  0  0  0
   23.0750   11.3910    9.7230 C   0  0  0  0  0  0  0  0  0  0  0  0
   23.3700   12.2260   10.3590 H   0  0  0  0  0  0  0  0  0  0  0  0
   23.6010   10.4900   10.0390 H   0  0  0  0  0  0  0  0  0  0  0  0
   22.0000   11.2320    9.8070 H   0  0  0  0  0  0  0  0  0  0  0  0
   27.1330   19.6280   11.5960 Cl  0  0  0  0  0  0  0  0  0  0  0  0
  1  2  2  0
  1  8  1  0
  1 21  1  0
  2  3  1  0
  2  4  1  0
  4  5  1  0
  4  6  2  0
  6  7  1  0
  6 10  1  0
  7  8  2  0
  7 15  1  0
  8  9  1  0
 10 11  1  0
 11 12  1  0
 11 39  1  0
 11 43  1  0
 12 13  1  0
 12 14  1  0
 15 12  1  6
 15 16  1  0
 15 19  1  0
 16 17  1  0
 16 38  2  0
 17 18  1  0
 17 22  1  0
 18 19  2  0
 18 26  1  0
 19 20  1  0
 21 29  2  0
 21 36  1  0
 22 23  1  0
 22 24  1  0
 22 25  1  0
 26 27  1  0
 26 28  1  0
 29 30  1  0
 29 31  1  0
 31 32  2  0
 31 47  1  0
 32 33  1  0
 32 34  1  0
 34 35  1  0
 34 36  2  0
 36 37  1  0
 39 40  1  0
 39 41  1  0
 39 42  1  0
 43 44  1  0
 43 45  1  0
 43 46  1  0
M  CHG  1  19   1
M  END
>  <r_exp_dg>  (3) 
-10.4569

>  <experimental dG reference units>  (3) 
kcal/mol

>  <experimental dG reference field>  (3) 
r_exp_dg

>  <kJ/mol experimental dG>  (3) 
-43.7516696

>  <kcal/mol experimental dG>  (3) 
-10.4569

$$$$
13
     RDKit          3D

 48 51  0  0  1  0  0  0  0  0999 V2000
   26.9470   15.3250    9.1860 C   0  0  0  0  0  0  0  0  0  0  0  0
   27.6320   14.0950    9.0140 C   0  0  0  0  0  0  0  0  0  0  0  0
   28.7000   14.0480    9.1690 H   0  0  0  0  0  0  0  0  0  0  0  0
   26.9220   12.9310    8.6410 C   0  0  0  0  0  0  0  0  0  0  0  0
   27.4460   11.9960    8.5080 H   0  0  0  0  0  0  0  0  0  0  0  0
   25.5210   12.9940    8.4420 C   0  0  0  0  0  0  0  0  0  0  0  0
   24.8260   14.2190    8.6190 C   0  0  0  0  0  0  0  0  0  0  0  0
   25.5440   15.3800    8.9820 C   0  0  0  0  0  0  0  0  0  0  0  0
   25.0210   16.3170    9.1050 H   0  0  0  0  0  0  0  0  0  0  0  0
   24.8500   11.8510    8.0940 O   0  0  0  0  0  0  0  0  0  0  0  0
   23.4360   11.7100    8.2520 C   0  0  0  0  0  0  0  0  0  0  0  0
   22.7180   13.0050    7.7980 C   0  0  0  0  0  0  0  0  0  0  0  0
   21.6740   12.9400    8.1030 H   0  0  0  0  0  0  0  0  0  0  0  0
   22.7760   13.0630    6.7110 H   0  0  0  0  0  0  0  0  0  0  0  0
   23.3110   14.3040    8.3820 C   0  0  2  0  0  0  0  0  0  0  0  0
   23.0360   15.4900    7.4390 C   0  0  0  0  0  0  0  0  0  0  0  0
   22.3290   16.4140    8.1240 N   0  0  0  0  0  0  0  0  0  0  0  0
   22.0880   15.9170    9.3720 C   0  0  0  0  0  0  0  0  0  0  0  0
   22.5740   14.7390    9.5680 N   0  0  0  0  0  0  0  0  0  0  0  0
   22.4630   14.1980   10.4140 H   0  0  0  0  0  0  0  0  0  0  0  0
   27.6390   16.5060    9.5380 C   0  0  0  0  0  0  0  0  0  0  0  0
   21.9330   17.7200    7.5940 C   0  0  0  0  0  0  0  0  0  0  0  0
   22.2760   17.8130    6.5640 H   0  0  0  0  0  0  0  0  0  0  0  0
   22.3810   18.5090    8.1990 H   0  0  0  0  0  0  0  0  0  0  0  0
   20.8470   17.8110    7.6250 H   0  0  0  0  0  0  0  0  0  0  0  0
   21.3210   16.6530   10.2630 N   0  0  0  0  0  0  0  0  0  0  0  0
   21.0940   16.2700   11.1700 H   0  0  0  0  0  0  0  0  0  0  0  0
   20.9900   17.5720   10.0050 H   0  0  0  0  0  0  0  0  0  0  0  0
   27.0450   17.4570   10.4030 C   0  0  0  0  0  0  0  0  0  0  0  0
   26.0630   17.2760   10.8140 H   0  0  0  0  0  0  0  0  0  0  0  0
   27.7420   18.6460   10.7270 C   0  0  0  0  0  0  0  0  0  0  0  0
   29.0290   18.9000   10.1880 C   0  0  0  0  0  0  0  0  0  0  0  0
   29.5540   19.8090   10.4410 H   0  0  0  0  0  0  0  0  0  0  0  0
   29.6220   17.9540    9.3150 C   0  0  0  0  0  0  0  0  0  0  0  0
   30.6020   18.1380    8.9010 H   0  0  0  0  0  0  0  0  0  0  0  0
   28.9240   16.7660    8.9880 C   0  0  0  0  0  0  0  0  0  0  0  0
   29.3720   16.0510    8.3140 H   0  0  0  0  0  0  0  0  0  0  0  0
   23.5150   15.6060    6.3060 O   0  0  0  0  0  0  0  0  0  0  0  0
   23.0150   10.5220    7.3590 C   0  0  0  0  0  0  0  0  0  0  0  0
   23.2670   10.7410    6.3210 H   0  0  0  0  0  0  0  0  0  0  0  0
   21.9400   10.3650    7.4470 H   0  0  0  0  0  0  0  0  0  0  0  0
   23.5410    9.6230    7.6790 H   0  0  0  0  0  0  0  0  0  0  0  0
   23.0750   11.3910    9.7230 C   0  0  0  0  0  0  0  0  0  0  0  0
   23.3700   12.2260   10.3590 H   0  0  0  0  0  0  0  0  0  0  0  0
   23.6010   10.4900   10.0390 H   0  0  0  0  0  0  0  0  0  0  0  0
   22.0000   11.2320    9.8070 H   0  0  0  0  0  0  0  0  0  0  0  0
   27.1330   19.6280   11.5960 C   0  0  0  0  0  0  0  0  0  0  0  0
   26.6290   20.3930   12.3010 N   0  0  0  0  0  0  0  0  0  0  0  0
  1  2  2  0
  1  8  1  0
  1 21  1  0
  2  3  1  0
  2  4  1  0
  4  5  1  0
  4  6  2  0
  6  7  1  0
  6 10  1  0
  7  8  2  0
  7 15  1  0
  8  9  1  0
 10 11  1  0
 11 12  1  0
 11 39  1  0
 11 43  1  0
 12 13  1  0
 12 14  1  0
 15 12  1  6
 15 16  1  0
 15 19  1  0
 16 17  1  0
 16 38  2  0
 17 18  1  0
 17 22  1  0
 18 19  2  0
 18 26  1  0
 19 20  1  0
 21 29  2  0
 21 36  1  0
 22 23  1  0
 22 24  1  0
 22 25  1  0
 26 27  1  0
 26 28  1  0
 29 30  1  0
 29 31  1  0
 31 32  2  0
 31 47  1  0
 32 33  1  0
 32 34  1  0
 34 35  1  0
 34 36  2  0
 36 37  1  0
 39 40  1  0
 39 41  1  0
 39 42  1  0
 43 44  1  0
 43 45  1  0
 43 46  1  0
 47 48  3  0
M  CHG  1  19   1
M  END
>  <r_exp_dg>  (4) 
-9.64326

>  <experimental dG reference units>  (4) 
kcal/mol

>  <experimental dG reference field>  (4) 
r_exp_dg

>  <kJ/mol experimental dG>  (4) 
-40.34739984

>  <kcal/mol experimental dG>  (4) 
-9.64326

$$$$
14
     RDKit          3D

 51 54  0  0  1  0  0  0  0  0999 V2000
   26.9470   15.3250    9.1860 C   0  0  0  0  0  0  0  0  0  0  0  0
   27.6320   14.0950    9.0140 C   0  0  0  0  0  0  0  0  0  0  0  0
   28.7000   14.0480    9.1690 H   0  0  0  0  0  0  0  0  0  0  0  0
   26.9220   12.9310    8.6410 C   0  0  0  0  0  0  0  0  0  0  0  0
   27.4460   11.9960    8.5080 H   0  0  0  0  0  0  0  0  0  0  0  0
   25.5210   12.9940    8.4420 C   0  0  0  0  0  0  0  0  0  0  0  0
   24.8260   14.2190    8.6190 C   0  0  0  0  0  0  0  0  0  0  0  0
   25.5440   15.3800    8.9820 C   0  0  0  0  0  0  0  0  0  0  0  0
   25.0210   16.3170    9.1050 H   0  0  0  0  0  0  0  0  0  0  0  0
   24.8500   11.8510    8.0940 O   0  0  0  0  0  0  0  0  0  0  0  0
   23.4360   11.7100    8.2520 C   0  0  0  0  0  0  0  0  0  0  0  0
   22.7180   13.0050    7.7980 C   0  0  0  0  0  0  0  0  0  0  0  0
   21.6740   12.9400    8.1030 H   0  0  0  0  0  0  0  0  0  0  0  0
   22.7760   13.0630    6.7110 H   0  0  0  0  0  0  0  0  0  0  0  0
   23.3110   14.3040    8.3820 C   0  0  2  0  0  0  0  0  0  0  0  0
   23.0360   15.4900    7.4390 C   0  0  0  0  0  0  0  0  0  0  0  0
   22.3290   16.4140    8.1240 N   0  0  0  0  0  0  0  0  0  0  0  0
   22.0880   15.9170    9.3720 C   0  0  0  0  0  0  0  0  0  0  0  0
   22.5740   14.7390    9.5680 N   0  0  0  0  0  0  0  0  0  0  0  0
   22.4630   14.1980   10.4140 H   0  0  0  0  0  0  0  0  0  0  0  0
   27.6390   16.5060    9.5380 C   0  0  0  0  0  0  0  0  0  0  0  0
   21.9330   17.7200    7.5940 C   0  0  0  0  0  0  0  0  0  0  0  0
   22.2760   17.8130    6.5640 H   0  0  0  0  0  0  0  0  0  0  0  0
   22.3810   18.5090    8.1990 H   0  0  0  0  0  0  0  0  0  0  0  0
   20.8470   17.8110    7.6250 H   0  0  0  0  0  0  0  0  0  0  0  0
   21.3210   16.6530   10.2630 N   0  0  0  0  0  0  0  0  0  0  0  0
   21.0940   16.2700   11.1700 H   0  0  0  0  0  0  0  0  0  0  0  0
   20.9900   17.5720   10.0050 H   0  0  0  0  0  0  0  0  0  0  0  0
   27.0450   17.4570   10.4030 C   0  0  0  0  0  0  0  0  0  0  0  0
   26.0630   17.2760   10.8140 H   0  0  0  0  0  0  0  0  0  0  0  0
   27.7420   18.6460   10.7270 C   0  0  0  0  0  0  0  0  0  0  0  0
   29.0290   18.9000   10.1880 C   0  0  0  0  0  0  0  0  0  0  0  0
   29.5540   19.8090   10.4410 H   0  0  0  0  0  0  0  0  0  0  0  0
   29.6220   17.9540    9.3150 C   0  0  0  0  0  0  0  0  0  0  0  0
   30.6020   18.1380    8.9010 H   0  0  0  0  0  0  0  0  0  0  0  0
   28.9240   16.7660    8.9880 C   0  0  0  0  0  0  0  0  0  0  0  0
   29.3720   16.0510    8.3140 H   0  0  0  0  0  0  0  0  0  0  0  0
   23.5150   15.6060    6.3060 O   0  0  0  0  0  0  0  0  0  0  0  0
   23.0150   10.5220    7.3590 C   0  0  0  0  0  0  0  0  0  0  0  0
   23.2670   10.7410    6.3210 H   0  0  0  0  0  0  0  0  0  0  0  0
   21.9400   10.3650    7.4470 H   0  0  0  0  0  0  0  0  0  0  0  0
   23.5410    9.6230    7.6790 H   0  0  0  0  0  0  0  0  0  0  0  0
   23.0750   11.3910    9.7230 C   0  0  0  0  0  0  0  0  0  0  0  0
   23.3700   12.2260   10.3590 H   0  0  0  0  0  0  0  0  0  0  0  0
   23.6010   10.4900   10.0390 H   0  0  0  0  0  0  0  0  0  0  0  0
   22.0000   11.2320    9.8070 H   0  0  0  0  0  0  0  0  0  0  0  0
   27.1410   19.6160   11.5850 O   0  0  0  0  0  0  0  0  0  0  0  0
   27.9590   20.7470   11.8850 C   0  0  0  0  0  0  0  0  0  0  0  0
   27.4150   21.4250   12.5430 H   0  0  0  0  0  0  0  0  0  0  0  0
   28.2170   21.2640   10.9610 H   0  0  0  0  0  0  0  0  0  0  0  0
   28.8710   20.4140   12.3810 H   0  0  0  0  0  0  0  0  0  0  0  0
  1  2  2  0
  1  8  1  0
  1 21  1  0
  2  3  1  0
  2  4  1  0
  4  5  1  0
  4  6  2  0
  6  7  1  0
  6 10  1  0
  7  8  2  0
  7 15  1  0
  8  9  1  0
 10 11  1  0
 11 12  1  0
 11 39  1  0
 11 43  1  0
 12 13  1  0
 12 14  1  0
 15 12  1  6
 15 16  1  0
 15 19  1  0
 16 17  1  0
 16 38  2  0
 17 18  1  0
 17 22  1  0
 18 19  2  0
 18 26  1  0
 19 20  1  0
 21 29  2  0
 21 36  1  0
 22 23  1  0
 22 24  1  0
 22 25  1  0
 26 27  1  0
 26 28  1  0
 29 30  1  0
 29 31  1  0
 31 32  2  0
 31 47  1  0
 32 33  1  0
 32 34  1  0
 34 35  1  0
 34 36  2  0
 36 37  1  0
 39 40  1  0
 39 41  1  0
 39 42  1  0
 43 44  1  0
 43 45  1  0
 43 46  1  0
 47 48  1  0
 48 49  1  0
 48 50  1  0
 48 51  1  0
M  CHG  1  19   1
M  END
>  <r_exp_dg>  (5) 
-9.83624

>  <experimental dG reference units>  (5) 
kcal/mol

>  <experimental dG reference field>  (5) 
r_exp_dg

>  <kJ/mol experimental dG>  (5) 
-41.15482816

>  <kcal/mol experimental dG>  (5) 
-9.83624

$$$$
15
     RDKit          3D

 51 54  0  0  1  0  0  0  0  0999 V2000
   26.9470   15.3250    9.1860 C   0  0  0  0  0  0  0  0  0  0  0  0
   27.6320   14.0950    9.0140 C   0  0  0  0  0  0  0  0  0  0  0  0
   28.7000   14.0480    9.1690 H   0  0  0  0  0  0  0  0  0  0  0  0
   26.9220   12.9310    8.6410 C   0  0  0  0  0  0  0  0  0  0  0  0
   27.4460   11.9960    8.5080 H   0  0  0  0  0  0  0  0  0  0  0  0
   25.5210   12.9940    8.4420 C   0  0  0  0  0  0  0  0  0  0  0  0
   24.8260   14.2190    8.6190 C   0  0  0  0  0  0  0  0  0  0  0  0
   25.5440   15.3800    8.9820 C   0  0  0  0  0  0  0  0  0  0  0  0
   25.0210   16.3170    9.1050 H   0  0  0  0  0  0  0  0  0  0  0  0
   24.8500   11.8510    8.0940 O   0  0  0  0  0  0  0  0  0  0  0  0
   23.4360   11.7100    8.2520 C   0  0  0  0  0  0  0  0  0  0  0  0
   22.7180   13.0050    7.7980 C   0  0  0  0  0  0  0  0  0  0  0  0
   21.6740   12.9400    8.1030 H   0  0  0  0  0  0  0  0  0  0  0  0
   22.7760   13.0630    6.7110 H   0  0  0  0  0  0  0  0  0  0  0  0
   23.3110   14.3040    8.3820 C   0  0  2  0  0  0  0  0  0  0  0  0
   23.0360   15.4900    7.4390 C   0  0  0  0  0  0  0  0  0  0  0  0
   22.3290   16.4140    8.1240 N   0  0  0  0  0  0  0  0  0  0  0  0
   22.0880   15.9170    9.3720 C   0  0  0  0  0  0  0  0  0  0  0  0
   22.5740   14.7390    9.5680 N   0  0  0  0  0  0  0  0  0  0  0  0
   22.4630   14.1980   10.4140 H   0  0  0  0  0  0  0  0  0  0  0  0
   27.6390   16.5060    9.5380 C   0  0  0  0  0  0  0  0  0  0  0  0
   21.9330   17.7200    7.5940 C   0  0  0  0  0  0  0  0  0  0  0  0
   22.2760   17.8130    6.5640 H   0  0  0  0  0  0  0  0  0  0  0  0
   22.3810   18.5090    8.1990 H   0  0  0  0  0  0  0  0  0  0  0  0
   20.8470   17.8110    7.6250 H   0  0  0  0  0  0  0  0  0  0  0  0
   21.3210   16.6530   10.2630 N   0  0  0  0  0  0  0  0  0  0  0  0
   21.0940   16.2700   11.1700 H   0  0  0  0  0  0  0  0  0  0  0  0
   20.9900   17.5720   10.0050 H   0  0  0  0  0  0  0  0  0  0  0  0
   27.3590   17.1670   10.7590 C   0  0  0  0  0  0  0  0  0  0  0  0
   26.6250   16.7610   11.4380 H   0  0  0  0  0  0  0  0  0  0  0  0
   28.0440   18.3620   11.0860 C   0  0  0  0  0  0  0  0  0  0  0  0
   27.8330   18.8610   12.0200 H   0  0  0  0  0  0  0  0  0  0  0  0
   29.0060   18.9100   10.1990 C   0  0  0  0  0  0  0  0  0  0  0  0
   29.5250   19.8220   10.4560 H   0  0  0  0  0  0  0  0  0  0  0  0
   29.2810   18.2560    8.9720 C   0  0  0  0  0  0  0  0  0  0  0  0
   30.0130   18.6650    8.2920 H   0  0  0  0  0  0  0  0  0  0  0  0
   28.5940   17.0620    8.6430 C   0  0  0  0  0  0  0  0  0  0  0  0
   28.8620   16.4110    7.4010 O   0  0  0  0  0  0  0  0  0  0  0  0
   29.6890   17.1480    6.5000 C   0  0  0  0  0  0  0  0  0  0  0  0
   29.8350   16.5710    5.5860 H   0  0  0  0  0  0  0  0  0  0  0  0
   30.6550   17.3400    6.9660 H   0  0  0  0  0  0  0  0  0  0  0  0
   29.2070   18.0950    6.2580 H   0  0  0  0  0  0  0  0  0  0  0  0
   23.5150   15.6060    6.3060 O   0  0  0  0  0  0  0  0  0  0  0  0
   23.0150   10.5220    7.3590 C   0  0  0  0  0  0  0  0  0  0  0  0
   23.2670   10.7410    6.3210 H   0  0  0  0  0  0  0  0  0  0  0  0
   21.9400   10.3650    7.4470 H   0  0  0  0  0  0  0  0  0  0  0  0
   23.5410    9.6230    7.6790 H   0  0  0  0  0  0  0  0  0  0  0  0
   23.0750   11.3910    9.7230 C   0  0  0  0  0  0  0  0  0  0  0  0
   23.3700   12.2260   10.3590 H   0  0  0  0  0  0  0  0  0  0  0  0
   23.6010   10.4900   10.0390 H   0  0  0  0  0  0  0  0  0  0  0  0
   22.0000   11.2320    9.8070 H   0  0  0  0  0  0  0  0  0  0  0  0
  1  2  2  0
  1  8  1  0
  1 21  1  0
  2  3  1  0
  2  4  1  0
  4  5  1  0
  4  6  2  0
  6  7  1  0
  6 10  1  0
  7  8  2  0
  7 15  1  0
  8  9  1  0
 10 11  1  0
 11 12  1  0
 11 44  1  0
 11 48  1  0
 12 13  1  0
 12 14  1  0
 15 12  1  6
 15 16  1  0
 15 19  1  0
 16 17  1  0
 16 43  2  0
 17 18  1  0
 17 22  1  0
 18 19  2  0
 18 26  1  0
 19 20  1  0
 21 29  2  0
 21 37  1  0
 22 23  1  0
 22 24  1  0
 22 25  1  0
 26 27  1  0
 26 28  1  0
 29 30  1  0
 29 31  1  0
 31 32  1  0
 31 33  2  0
 33 34  1  0
 33 35  1  0
 35 36  1  0
 35 37  2  0
 37 38  1  0
 38 39  1  0
 39 40  1  0
 39 41  1  0
 39 42  1  0
 44 45  1  0
 44 46  1  0
 44 47  1  0
 48 49  1  0
 48 50  1  0
 48 51  1  0
M  CHG  1  19   1
M  END
>  <r_exp_dg>  (6) 
-7.91744

>  <experimental dG reference units>  (6) 
kcal/mol

>  <experimental dG reference field>  (6) 
r_exp_dg

>  <kJ/mol experimental dG>  (6) 
-33.12656896

>  <kcal/mol experimental dG>  (6) 
-7.91744

$$$$
16
     RDKit          3D

 51 54  0  0  1  0  0  0  0  0999 V2000
   26.9470   15.3250    9.1860 C   0  0  0  0  0  0  0  0  0  0  0  0
   27.6320   14.0950    9.0140 C   0  0  0  0  0  0  0  0  0  0  0  0
   28.7000   14.0480    9.1690 H   0  0  0  0  0  0  0  0  0  0  0  0
   26.9220   12.9310    8.6410 C   0  0  0  0  0  0  0  0  0  0  0  0
   27.4460   11.9960    8.5080 H   0  0  0  0  0  0  0  0  0  0  0  0
   25.5210   12.9940    8.4420 C   0  0  0  0  0  0  0  0  0  0  0  0
   24.8260   14.2190    8.6190 C   0  0  0  0  0  0  0  0  0  0  0  0
   25.5440   15.3800    8.9820 C   0  0  0  0  0  0  0  0  0  0  0  0
   25.0210   16.3170    9.1050 H   0  0  0  0  0  0  0  0  0  0  0  0
   24.8500   11.8510    8.0940 O   0  0  0  0  0  0  0  0  0  0  0  0
   23.4360   11.7100    8.2520 C   0  0  0  0  0  0  0  0  0  0  0  0
   22.7180   13.0050    7.7980 C   0  0  0  0  0  0  0  0  0  0  0  0
   21.6740   12.9400    8.1030 H   0  0  0  0  0  0  0  0  0  0  0  0
   22.7760   13.0630    6.7110 H   0  0  0  0  0  0  0  0  0  0  0  0
   23.3110   14.3040    8.3820 C   0  0  2  0  0  0  0  0  0  0  0  0
   23.0360   15.4900    7.4390 C   0  0  0  0  0  0  0  0  0  0  0  0
   22.3290   16.4140    8.1240 N   0  0  0  0  0  0  0  0  0  0  0  0
   22.0880   15.9170    9.3720 C   0  0  0  0  0  0  0  0  0  0  0  0
   22.5740   14.7390    9.5680 N   0  0  0  0  0  0  0  0  0  0  0  0
   22.4630   14.1980   10.4140 H   0  0  0  0  0  0  0  0  0  0  0  0
   27.6390   16.5060    9.5380 C   0  0  0  0  0  0  0  0  0  0  0  0
   21.9330   17.7200    7.5940 C   0  0  0  0  0  0  0  0  0  0  0  0
   22.2760   17.8130    6.5640 H   0  0  0  0  0  0  0  0  0  0  0  0
   22.3810   18.5090    8.1990 H   0  0  0  0  0  0  0  0  0  0  0  0
   20.8470   17.8110    7.6250 H   0  0  0  0  0  0  0  0  0  0  0  0
   21.3210   16.6530   10.2630 N   0  0  0  0  0  0  0  0  0  0  0  0
   21.0940   16.2700   11.1700 H   0  0  0  0  0  0  0  0  0  0  0  0
   20.9900   17.5720   10.0050 H   0  0  0  0  0  0  0  0  0  0  0  0
   27.0450   17.4570   10.4030 C   0  0  0  0  0  0  0  0  0  0  0  0
   26.0630   17.2760   10.8140 H   0  0  0  0  0  0  0  0  0  0  0  0
   27.7420   18.6460   10.7270 C   0  0  0  0  0  0  0  0  0  0  0  0
   27.2890   19.3670   11.3910 H   0  0  0  0  0  0  0  0  0  0  0  0
   29.0290   18.9000   10.1880 C   0  0  0  0  0  0  0  0  0  0  0  0
   29.7230   20.1020   10.5230 O   0  0  0  0  0  0  0  0  0  0  0  0
   31.0090   20.2450    9.9180 C   0  0  0  0  0  0  0  0  0  0  0  0
   31.4560   21.1880   10.2330 H   0  0  0  0  0  0  0  0  0  0  0  0
   30.9040   20.2370    8.8330 H   0  0  0  0  0  0  0  0  0  0  0  0
   31.6490   19.4180   10.2270 H   0  0  0  0  0  0  0  0  0  0  0  0
   29.6220   17.9540    9.3150 C   0  0  0  0  0  0  0  0  0  0  0  0
   30.6020   18.1380    8.9010 H   0  0  0  0  0  0  0  0  0  0  0  0
   28.9240   16.7660    8.9880 C   0  0  0  0  0  0  0  0  0  0  0  0
   29.3720   16.0510    8.3140 H   0  0  0  0  0  0  0  0  0  0  0  0
   23.5150   15.6060    6.3060 O   0  0  0  0  0  0  0  0  0  0  0  0
   23.0150   10.5220    7.3590 C   0  0  0  0  0  0  0  0  0  0  0  0
   23.2670   10.7410    6.3210 H   0  0  0  0  0  0  0  0  0  0  0  0
   21.9400   10.3650    7.4470 H   0  0  0  0  0  0  0  0  0  0  0  0
   23.5410    9.6230    7.6790 H   0  0  0  0  0  0  0  0  0  0  0  0
   23.0750   11.3910    9.7230 C   0  0  0  0  0  0  0  0  0  0  0  0
   23.3700   12.2260   10.3590 H   0  0  0  0  0  0  0  0  0  0  0  0
   23.6010   10.4900   10.0390 H   0  0  0  0  0  0  0  0  0  0  0  0
   22.0000   11.2320    9.8070 H   0  0  0  0  0  0  0  0  0  0  0  0
  1  2  2  0
  1  8  1  0
  1 21  1  0
  2  3  1  0
  2  4  1  0
  4  5  1  0
  4  6  2  0
  6  7  1  0
  6 10  1  0
  7  8  2  0
  7 15  1  0
  8  9  1  0
 10 11  1  0
 11 12  1  0
 11 44  1  0
 11 48  1  0
 12 13  1  0
 12 14  1  0
 15 12  1  6
 15 16  1  0
 15 19  1  0
 16 17  1  0
 16 43  2  0
 17 18  1  0
 17 22  1  0
 18 19  2  0
 18 26  1  0
 19 20  1  0
 21 29  2  0
 21 41  1  0
 22 23  1  0
 22 24  1  0
 22 25  1  0
 26 27  1  0
 26 28  1  0
 29 30  1  0
 29 31  1  0
 31 32  1  0
 31 33  2  0
 33 34  1  0
 33 39  1  0
 34 35  1  0
 35 36  1  0
 35 37  1  0
 35 38  1  0
 39 40  1  0
 39 41  2  0
 41 42  1  0
 44 45  1  0
 44 46  1  0
 44 47  1  0
 48 49  1  0
 48 50  1  0
 48 51  1  0
M  CHG  1  19   1
M  END
>  <r_exp_dg>  (7) 
-7.05774

>  <experimental dG reference units>  (7) 
kcal/mol

>  <experimental dG reference field>  (7) 
r_exp_dg

>  <kJ/mol experimental dG>  (7) 
-29.529584160000002

>  <kcal/mol experimental dG>  (7) 
-7.05774

$$$$
17
     RDKit          3D

 47 50  0  0  1  0  0  0  0  0999 V2000
   26.9470   15.3250    9.1860 C   0  0  0  0  0  0  0  0  0  0  0  0
   27.6320   14.0950    9.0140 C   0  0  0  0  0  0  0  0  0  0  0  0
   28.7000   14.0480    9.1690 H   0  0  0  0  0  0  0  0  0  0  0  0
   26.9220   12.9310    8.6410 C   0  0  0  0  0  0  0  0  0  0  0  0
   27.4460   11.9960    8.5080 H   0  0  0  0  0  0  0  0  0  0  0  0
   25.5210   12.9940    8.4420 C   0  0  0  0  0  0  0  0  0  0  0  0
   24.8260   14.2190    8.6190 C   0  0  0  0  0  0  0  0  0  0  0  0
   25.5440   15.3800    8.9820 C   0  0  0  0  0  0  0  0  0  0  0  0
   25.0210   16.3170    9.1050 H   0  0  0  0  0  0  0  0  0  0  0  0
   24.8500   11.8510    8.0940 O   0  0  0  0  0  0  0  0  0  0  0  0
   23.4360   11.7100    8.2520 C   0  0  0  0  0  0  0  0  0  0  0  0
   22.7180   13.0050    7.7980 C   0  0  0  0  0  0  0  0  0  0  0  0
   21.6740   12.9400    8.1030 H   0  0  0  0  0  0  0  0  0  0  0  0
   22.7760   13.0630    6.7110 H   0  0  0  0  0  0  0  0  0  0  0  0
   23.3110   14.3040    8.3820 C   0  0  2  0  0  0  0  0  0  0  0  0
   23.0360   15.4900    7.4390 C   0  0  0  0  0  0  0  0  0  0  0  0
   22.3290   16.4140    8.1240 N   0  0  0  0  0  0  0  0  0  0  0  0
   22.0880   15.9170    9.3720 C   0  0  0  0  0  0  0  0  0  0  0  0
   22.5740   14.7390    9.5680 N   0  0  0  0  0  0  0  0  0  0  0  0
   22.4630   14.1980   10.4140 H   0  0  0  0  0  0  0  0  0  0  0  0
   27.6390   16.5060    9.5380 C   0  0  0  0  0  0  0  0  0  0  0  0
   21.9330   17.7200    7.5940 C   0  0  0  0  0  0  0  0  0  0  0  0
   22.2760   17.8130    6.5640 H   0  0  0  0  0  0  0  0  0  0  0  0
   22.3810   18.5090    8.1990 H   0  0  0  0  0  0  0  0  0  0  0  0
   20.8470   17.8110    7.6250 H   0  0  0  0  0  0  0  0  0  0  0  0
   21.3210   16.6530   10.2630 N   0  0  0  0  0  0  0  0  0  0  0  0
   21.0940   16.2700   11.1700 H   0  0  0  0  0  0  0  0  0  0  0  0
   20.9900   17.5720   10.0050 H   0  0  0  0  0  0  0  0  0  0  0  0
   27.0450   17.4570   10.4030 C   0  0  0  0  0  0  0  0  0  0  0  0
   26.0630   17.2760   10.8140 H   0  0  0  0  0  0  0  0  0  0  0  0
   27.7420   18.6460   10.7270 C   0  0  0  0  0  0  0  0  0  0  0  0
   29.0290   18.9000   10.1880 C   0  0  0  0  0  0  0  0  0  0  0  0
   29.5540   19.8090   10.4410 H   0  0  0  0  0  0  0  0  0  0  0  0
   29.6220   17.9540    9.3150 C   0  0  0  0  0  0  0  0  0  0  0  0
   31.2140   18.2530    8.6430 Cl  0  0  0  0  0  0  0  0  0  0  0  0
   28.9240   16.7660    8.9880 C   0  0  0  0  0  0  0  0  0  0  0  0
   29.3720   16.0510    8.3140 H   0  0  0  0  0  0  0  0  0  0  0  0
   23.5150   15.6060    6.3060 O   0  0  0  0  0  0  0  0  0  0  0  0
   23.0150   10.5220    7.3590 C   0  0  0  0  0  0  0  0  0  0  0  0
   23.2670   10.7410    6.3210 H   0  0  0  0  0  0  0  0  0  0  0  0
   21.9400   10.3650    7.4470 H   0  0  0  0  0  0  0  0  0  0  0  0
   23.5410    9.6230    7.6790 H   0  0  0  0  0  0  0  0  0  0  0  0
   23.0750   11.3910    9.7230 C   0  0  0  0  0  0  0  0  0  0  0  0
   23.3700   12.2260   10.3590 H   0  0  0  0  0  0  0  0  0  0  0  0
   23.6010   10.4900   10.0390 H   0  0  0  0  0  0  0  0  0  0  0  0
   22.0000   11.2320    9.8070 H   0  0  0  0  0  0  0  0  0  0  0  0
   27.1330   19.6280   11.5960 Cl  0  0  0  0  0  0  0  0  0  0  0  0
  1  2  2  0
  1  8  1  0
  1 21  1  0
  2  3  1  0
  2  4  1  0
  4  5  1  0
  4  6  2  0
  6  7  1  0
  6 10  1  0
  7  8  2  0
  7 15  1  0
  8  9  1  0
 10 11  1  0
 11 12  1  0
 11 39  1  0
 11 43  1  0
 12 13  1  0
 12 14  1  0
 15 12  1  6
 15 16  1  0
 15 19  1  0
 16 17  1  0
 16 38  2  0
 17 18  1  0
 17 22  1  0
 18 19  2  0
 18 26  1  0
 19 20  1  0
 21 29  2  0
 21 36  1  0
 22 23  1  0
 22 24  1  0
 22 25  1  0
 26 27  1  0
 26 28  1  0
 29 30  1  0
 29 31  1  0
 31 32  2  0
 31 47  1  0
 32 33  1  0
 32 34  1  0
 34 35  1  0
 34 36  2  0
 36 37  1  0
 39 40  1  0
 39 41  1  0
 39 42  1  0
 43 44  1  0
 43 45  1  0
 43 46  1  0
M  CHG  1  19   1
M  END
>  <r_exp_dg>  (8) 
-10.3651

>  <experimental dG reference units>  (8) 
kcal/mol

>  <experimental dG reference field>  (8) 
r_exp_dg

>  <kJ/mol experimental dG>  (8) 
-43.3675784

>  <kcal/mol experimental dG>  (8) 
-10.3651

$$$$
18
     RDKit          3D

 51 54  0  0  1  0  0  0  0  0999 V2000
   26.9470   15.3250    9.1860 C   0  0  0  0  0  0  0  0  0  0  0  0
   27.6320   14.0950    9.0140 C   0  0  0  0  0  0  0  0  0  0  0  0
   28.7000   14.0480    9.1690 H   0  0  0  0  0  0  0  0  0  0  0  0
   26.9220   12.9310    8.6410 C   0  0  0  0  0  0  0  0  0  0  0  0
   27.4460   11.9960    8.5080 H   0  0  0  0  0  0  0  0  0  0  0  0
   25.5210   12.9940    8.4420 C   0  0  0  0  0  0  0  0  0  0  0  0
   24.8260   14.2190    8.6190 C   0  0  0  0  0  0  0  0  0  0  0  0
   25.5440   15.3800    8.9820 C   0  0  0  0  0  0  0  0  0  0  0  0
   25.0210   16.3170    9.1050 H   0  0  0  0  0  0  0  0  0  0  0  0
   24.8500   11.8510    8.0940 O   0  0  0  0  0  0  0  0  0  0  0  0
   23.4360   11.7100    8.2520 C   0  0  0  0  0  0  0  0  0  0  0  0
   22.7180   13.0050    7.7980 C   0  0  0  0  0  0  0  0  0  0  0  0
   21.6740   12.9400    8.1030 H   0  0  0  0  0  0  0  0  0  0  0  0
   22.7760   13.0630    6.7110 H   0  0  0  0  0  0  0  0  0  0  0  0
   23.3110   14.3040    8.3820 C   0  0  2  0  0  0  0  0  0  0  0  0
   23.0360   15.4900    7.4390 C   0  0  0  0  0  0  0  0  0  0  0  0
   22.3290   16.4140    8.1240 N   0  0  0  0  0  0  0  0  0  0  0  0
   22.0880   15.9170    9.3720 C   0  0  0  0  0  0  0  0  0  0  0  0
   22.5740   14.7390    9.5680 N   0  0  0  0  0  0  0  0  0  0  0  0
   22.4630   14.1980   10.4140 H   0  0  0  0  0  0  0  0  0  0  0  0
   27.6390   16.5060    9.5380 C   0  0  0  0  0  0  0  0  0  0  0  0
   21.9330   17.7200    7.5940 C   0  0  0  0  0  0  0  0  0  0  0  0
   22.2760   17.8130    6.5640 H   0  0  0  0  0  0  0  0  0  0  0  0
   22.3810   18.5090    8.1990 H   0  0  0  0  0  0  0  0  0  0  0  0
   20.8470   17.8110    7.6250 H   0  0  0  0  0  0  0  0  0  0  0  0
   21.3210   16.6530   10.2630 N   0  0  0  0  0  0  0  0  0  0  0  0
   21.0940   16.2700   11.1700 H   0  0  0  0  0  0  0  0  0  0  0  0
   20.9900   17.5720   10.0050 H   0  0  0  0  0  0  0  0  0  0  0  0
   27.0450   17.4570   10.4030 C   0  0  0  0  0  0  0  0  0  0  0  0
   26.0630   17.2760   10.8140 H   0  0  0  0  0  0  0  0  0  0  0  0
   27.7420   18.6460   10.7270 C   0  0  0  0  0  0  0  0  0  0  0  0
   29.0290   18.9000   10.1880 C   0  0  0  0  0  0  0  0  0  0  0  0
   29.5540   19.8090   10.4410 H   0  0  0  0  0  0  0  0  0  0  0  0
   29.6220   17.9540    9.3150 C   0  0  0  0  0  0  0  0  0  0  0  0
   30.8800   18.1900    8.7840 F   0  0  0  0  0  0  0  0  0  0  0  0
   28.9240   16.7660    8.9880 C   0  0  0  0  0  0  0  0  0  0  0  0
   29.3720   16.0510    8.3140 H   0  0  0  0  0  0  0  0  0  0  0  0
   23.5150   15.6060    6.3060 O   0  0  0  0  0  0  0  0  0  0  0  0
   23.0150   10.5220    7.3590 C   0  0  0  0  0  0  0  0  0  0  0  0
   23.2670   10.7410    6.3210 H   0  0  0  0  0  0  0  0  0  0  0  0
   21.9400   10.3650    7.4470 H   0  0  0  0  0  0  0  0  0  0  0  0
   23.5410    9.6230    7.6790 H   0  0  0  0  0  0  0  0  0  0  0  0
   23.0750   11.3910    9.7230 C   0  0  0  0  0  0  0  0  0  0  0  0
   23.3700   12.2260   10.3590 H   0  0  0  0  0  0  0  0  0  0  0  0
   23.6010   10.4900   10.0390 H   0  0  0  0  0  0  0  0  0  0  0  0
   22.0000   11.2320    9.8070 H   0  0  0  0  0  0  0  0  0  0  0  0
   27.1410   19.6160   11.5850 O   0  0  0  0  0  0  0  0  0  0  0  0
   27.9590   20.7470   11.8850 C   0  0  0  0  0  0  0  0  0  0  0  0
   27.4150   21.4250   12.5430 H   0  0  0  0  0  0  0  0  0  0  0  0
   28.2170   21.2640   10.9610 H   0  0  0  0  0  0  0  0  0  0  0  0
   28.8710   20.4140   12.3810 H   0  0  0  0  0  0  0  0  0  0  0  0
  1  2  2  0
  1  8  1  0
  1 21  1  0
  2  3  1  0
  2  4  1  0
  4  5  1  0
  4  6  2  0
  6  7  1  0
  6 10  1  0
  7  8  2  0
  7 15  1  0
  8  9  1  0
 10 11  1  0
 11 12  1  0
 11 39  1  0
 11 43  1  0
 12 13  1  0
 12 14  1  0
 15 12  1  6
 15 16  1  0
 15 19  1  0
 16 17  1  0
 16 38  2  0
 17 18  1  0
 17 22  1  0
 18 19  2  0
 18 26  1  0
 19 20  1  0
 21 29  2  0
 21 36  1  0
 22 23  1  0
 22 24  1  0
 22 25  1  0
 26 27  1  0
 26 28  1  0
 29 30  1  0
 29 31  1  0
 31 32  2  0
 31 47  1  0
 32 33  1  0
 32 34  1  0
 34 35  1  0
 34 36  2  0
 36 37  1  0
 39 40  1  0
 39 41  1  0
 39 42  1  0
 43 44  1  0
 43 45  1  0
 43 46  1  0
 47 48  1  0
 48 49  1  0
 48 50  1  0
 48 51  1  0
M  CHG  1  19   1
M  END
>  <r_exp_dg>  (9) 
-9.90099

>  <experimental dG reference units>  (9) 
kcal/mol

>  <experimental dG reference field>  (9) 
r_exp_dg

>  <kJ/mol experimental dG>  (9) 
-41.425742160000006

>  <kcal/mol experimental dG>  (9) 
-9.90099

$$$$
19
     RDKit          3D

 51 54  0  0  1  0  0  0  0  0999 V2000
   26.9470   15.3250    9.1860 C   0  0  0  0  0  0  0  0  0  0  0  0
   27.6320   14.0950    9.0140 C   0  0  0  0  0  0  0  0  0  0  0  0
   28.7000   14.0480    9.1690 H   0  0  0  0  0  0  0  0  0  0  0  0
   26.9220   12.9310    8.6410 C   0  0  0  0  0  0  0  0  0  0  0  0
   27.4460   11.9960    8.5080 H   0  0  0  0  0  0  0  0  0  0  0  0
   25.5210   12.9940    8.4420 C   0  0  0  0  0  0  0  0  0  0  0  0
   24.8260   14.2190    8.6190 C   0  0  0  0  0  0  0  0  0  0  0  0
   25.5440   15.3800    8.9820 C   0  0  0  0  0  0  0  0  0  0  0  0
   25.0210   16.3170    9.1050 H   0  0  0  0  0  0  0  0  0  0  0  0
   24.8500   11.8510    8.0940 O   0  0  0  0  0  0  0  0  0  0  0  0
   23.4360   11.7100    8.2520 C   0  0  0  0  0  0  0  0  0  0  0  0
   22.7180   13.0050    7.7980 C   0  0  0  0  0  0  0  0  0  0  0  0
   21.6740   12.9400    8.1030 H   0  0  0  0  0  0  0  0  0  0  0  0
   22.7760   13.0630    6.7110 H   0  0  0  0  0  0  0  0  0  0  0  0
   23.3110   14.3040    8.3820 C   0  0  2  0  0  0  0  0  0  0  0  0
   23.0360   15.4900    7.4390 C   0  0  0  0  0  0  0  0  0  0  0  0
   22.3290   16.4140    8.1240 N   0  0  0  0  0  0  0  0  0  0  0  0
   22.0880   15.9170    9.3720 C   0  0  0  0  0  0  0  0  0  0  0  0
   22.5740   14.7390    9.5680 N   0  0  0  0  0  0  0  0  0  0  0  0
   22.4630   14.1980   10.4140 H   0  0  0  0  0  0  0  0  0  0  0  0
   27.6390   16.5060    9.5380 C   0  0  0  0  0  0  0  0  0  0  0  0
   21.9330   17.7200    7.5940 C   0  0  0  0  0  0  0  0  0  0  0  0
   22.2760   17.8130    6.5640 H   0  0  0  0  0  0  0  0  0  0  0  0
   22.3810   18.5090    8.1990 H   0  0  0  0  0  0  0  0  0  0  0  0
   20.8470   17.8110    7.6250 H   0  0  0  0  0  0  0  0  0  0  0  0
   21.3210   16.6530   10.2630 N   0  0  0  0  0  0  0  0  0  0  0  0
   21.0940   16.2700   11.1700 H   0  0  0  0  0  0  0  0  0  0  0  0
   20.9900   17.5720   10.0050 H   0  0  0  0  0  0  0  0  0  0  0  0
   27.0450   17.4570   10.4030 C   0  0  0  0  0  0  0  0  0  0  0  0
   26.0630   17.2760   10.8140 H   0  0  0  0  0  0  0  0  0  0  0  0
   27.7420   18.6460   10.7270 C   0  0  0  0  0  0  0  0  0  0  0  0
   29.0290   18.9000   10.1880 C   0  0  0  0  0  0  0  0  0  0  0  0
   29.5540   19.8090   10.4410 H   0  0  0  0  0  0  0  0  0  0  0  0
   29.6220   17.9540    9.3150 C   0  0  0  0  0  0  0  0  0  0  0  0
   30.4890   18.1170    8.9490 H   0  0  0  0  0  0  0  0  0  0  0  0
   28.9240   16.7660    8.9880 C   0  0  0  0  0  0  0  0  0  0  0  0
   29.4990   15.8480    8.1230 F   0  0  0  0  0  0  0  0  0  0  0  0
   23.5150   15.6060    6.3060 O   0  0  0  0  0  0  0  0  0  0  0  0
   23.0150   10.5220    7.3590 C   0  0  0  0  0  0  0  0  0  0  0  0
   23.2670   10.7410    6.3210 H   0  0  0  0  0  0  0  0  0  0  0  0
   21.9400   10.3650    7.4470 H   0  0  0  0  0  0  0  0  0  0  0  0
   23.5410    9.6230    7.6790 H   0  0  0  0  0  0  0  0  0  0  0  0
   23.0750   11.3910    9.7230 C   0  0  0  0  0  0  0  0  0  0  0  0
   23.3700   12.2260   10.3590 H   0  0  0  0  0  0  0  0  0  0  0  0
   23.6010   10.4900   10.0390 H   0  0  0  0  0  0  0  0  0  0  0  0
   22.0000   11.2320    9.8070 H   0  0  0  0  0  0  0  0  0  0  0  0
   27.1410   19.6160   11.5850 O   0  0  0  0  0  0  0  0  0  0  0  0
   27.9590   20.7470   11.8850 C   0  0  0  0  0  0  0  0  0  0  0  0
   27.4150   21.4250   12.5430 H   0  0  0  0  0  0  0  0  0  0  0  0
   28.2170   21.2640   10.9610 H   0  0  0  0  0  0  0  0  0  0  0  0
   28.8710   20.4140   12.3810 H   0  0  0  0  0  0  0  0  0  0  0  0
  1  2  2  0
  1  8  1  0
  1 21  1  0
  2  3  1  0
  2  4  1  0
  4  5  1  0
  4  6  2  0
  6  7  1  0
  6 10  1  0
  7  8  2  0
  7 15  1  0
  8  9  1  0
 10 11  1  0
 11 12  1  0
 11 39  1  0
 11 43  1  0
 12 13  1  0
 12 14  1  0
 15 12  1  6
 15 16  1  0
 15 19  1  0
 16 17  1  0
 16 38  2  0
 17 18  1  0
 17 22  1  0
 18 19  2  0
 18 26  1  0
 19 20  1  0
 21 29  2  0
 21 36  1  0
 22 23  1  0
 22 24  1  0
 22 25  1  0
 26 27  1  0
 26 28  1  0
 29 30  1  0
 29 31  1  0
 31 32  2  0
 31 47  1  0
 32 33  1  0
 32 34  1  0
 34 35  1  0
 34 36  2  0
 36 37  1  0
 39 40  1  0
 39 41  1  0
 39 42  1  0
 43 44  1  0
 43 45  1  0
 43 46  1  0
 47 48  1  0
 48 49  1  0
 48 50  1  0
 48 51  1  0
M  CHG  1  19   1
M  END
>  <r_exp_dg>  (10) 
-9.91084

>  <experimental dG reference units>  (10) 
kcal/mol

>  <experimental dG reference field>  (10) 
r_exp_dg

>  <kJ/mol experimental dG>  (10) 
-41.466954560000005

>  <kcal/mol experimental dG>  (10) 
-9.91084

$$$$
20
     RDKit          3D

 47 50  0  0  1  0  0  0  0  0999 V2000
   26.9470   15.3250    9.1860 C   0  0  0  0  0  0  0  0  0  0  0  0
   27.6320   14.0950    9.0140 C   0  0  0  0  0  0  0  0  0  0  0  0
   28.7000   14.0480    9.1690 H   0  0  0  0  0  0  0  0  0  0  0  0
   26.9220   12.9310    8.6410 C   0  0  0  0  0  0  0  0  0  0  0  0
   27.4460   11.9960    8.5080 H   0  0  0  0  0  0  0  0  0  0  0  0
   25.5210   12.9940    8.4420 C   0  0  0  0  0  0  0  0  0  0  0  0
   24.8260   14.2190    8.6190 C   0  0  0  0  0  0  0  0  0  0  0  0
   25.5440   15.3800    8.9820 C   0  0  0  0  0  0  0  0  0  0  0  0
   25.0210   16.3170    9.1050 H   0  0  0  0  0  0  0  0  0  0  0  0
   24.8500   11.8510    8.0940 O   0  0  0  0  0  0  0  0  0  0  0  0
   23.4360   11.7100    8.2520 C   0  0  0  0  0  0  0  0  0  0  0  0
   22.7180   13.0050    7.7980 C   0  0  0  0  0  0  0  0  0  0  0  0
   21.6740   12.9400    8.1030 H   0  0  0  0  0  0  0  0  0  0  0  0
   22.7760   13.0630    6.7110 H   0  0  0  0  0  0  0  0  0  0  0  0
   23.3110   14.3040    8.3820 C   0  0  2  0  0  0  0  0  0  0  0  0
   23.0360   15.4900    7.4390 C   0  0  0  0  0  0  0  0  0  0  0  0
   22.3290   16.4140    8.1240 N   0  0  0  0  0  0  0  0  0  0  0  0
   22.0880   15.9170    9.3720 C   0  0  0  0  0  0  0  0  0  0  0  0
   22.5740   14.7390    9.5680 N   0  0  0  0  0  0  0  0  0  0  0  0
   22.4630   14.1980   10.4140 H   0  0  0  0  0  0  0  0  0  0  0  0
   27.6390   16.5060    9.5380 C   0  0  0  0  0  0  0  0  0  0  0  0
   21.9330   17.7200    7.5940 C   0  0  0  0  0  0  0  0  0  0  0  0
   22.2760   17.8130    6.5640 H   0  0  0  0  0  0  0  0  0  0  0  0
   22.3810   18.5090    8.1990 H   0  0  0  0  0  0  0  0  0  0  0  0
   20.8470   17.8110    7.6250 H   0  0  0  0  0  0  0  0  0  0  0  0
   21.3210   16.6530   10.2630 N   0  0  0  0  0  0  0  0  0  0  0  0
   21.0940   16.2700   11.1700 H   0  0  0  0  0  0  0  0  0  0  0  0
   20.9900   17.5720   10.0050 H   0  0  0  0  0  0  0  0  0  0  0  0
   28.9162   16.7813    8.9916 C   0  0  0  0  0  0  0  0  0  0  0  0
   29.3626   16.0960    8.2866 H   0  0  0  0  0  0  0  0  0  0  0  0
   29.6063   17.9573    9.3727 C   0  0  0  0  0  0  0  0  0  0  0  0
   29.0351   18.8620   10.3036 C   0  0  0  0  0  0  0  0  0  0  0  0
   29.5680   19.7570   10.5881 H   0  0  0  0  0  0  0  0  0  0  0  0
   27.7610   18.5844   10.8587 C   0  0  0  0  0  0  0  0  0  0  0  0
   27.1916   19.4620   11.7674 F   0  0  0  0  0  0  0  0  0  0  0  0
   27.0715   17.4067   10.4804 C   0  0  0  0  0  0  0  0  0  0  0  0
   26.2168   17.2151   10.8620 H   0  0  0  0  0  0  0  0  0  0  0  0
   23.5150   15.6060    6.3060 O   0  0  0  0  0  0  0  0  0  0  0  0
   23.0150   10.5220    7.3590 C   0  0  0  0  0  0  0  0  0  0  0  0
   23.2670   10.7410    6.3210 H   0  0  0  0  0  0  0  0  0  0  0  0
   21.9400   10.3650    7.4470 H   0  0  0  0  0  0  0  0  0  0  0  0
   23.5410    9.6230    7.6790 H   0  0  0  0  0  0  0  0  0  0  0  0
   23.0750   11.3910    9.7230 C   0  0  0  0  0  0  0  0  0  0  0  0
   23.3700   12.2260   10.3590 H   0  0  0  0  0  0  0  0  0  0  0  0
   23.6010   10.4900   10.0390 H   0  0  0  0  0  0  0  0  0  0  0  0
   22.0000   11.2320    9.8070 H   0  0  0  0  0  0  0  0  0  0  0  0
   30.9014   18.2314    8.8379 Cl  0  0  0  0  0  0  0  0  0  0  0  0
  1  2  2  0
  1  8  1  0
  1 21  1  0
  2  3  1  0
  2  4  1  0
  4  5  1  0
  4  6  2  0
  6  7  1  0
  6 10  1  0
  7  8  2  0
  7 15  1  0
  8  9  1  0
 10 11  1  0
 11 12  1  0
 11 39  1  0
 11 43  1  0
 12 13  1  0
 12 14  1  0
 15 12  1  6
 15 16  1  0
 15 19  1  0
 16 17  1  0
 16 38  2  0
 17 18  1  0
 17 22  1  0
 18 19  2  0
 18 26  1  0
 19 20  1  0
 21 29  2  0
 21 36  1  0
 22 23  1  0
 22 24  1  0
 22 25  1  0
 26 27  1  0
 26 28  1  0
 29 30  1  0
 29 31  1  0
 31 32  2  0
 31 47  1  0
 32 33  1  0
 32 34  1  0
 34 35  1  0
 34 36  2  0
 36 37  1  0
 39 40  1  0
 39 41  1  0
 39 42  1  0
 43 44  1  0
 43 45  1  0
 43 46  1  0
M  CHG  1  19   1
M  END
>  <r_exp_dg>  (11) 
-10.1676

>  <experimental dG reference units>  (11) 
kcal/mol

>  <experimental dG reference field>  (11) 
r_exp_dg

>  <kJ/mol experimental dG>  (11) 
-42.541238400000005

>  <kcal/mol experimental dG>  (11) 
-10.1676

$$$$
21
     RDKit          3D

 47 50  0  0  1  0  0  0  0  0999 V2000
   26.9470   15.3250    9.1860 C   0  0  0  0  0  0  0  0  0  0  0  0
   27.6320   14.0950    9.0140 C   0  0  0  0  0  0  0  0  0  0  0  0
   28.7000   14.0480    9.1690 H   0  0  0  0  0  0  0  0  0  0  0  0
   26.9220   12.9310    8.6410 C   0  0  0  0  0  0  0  0  0  0  0  0
   27.4460   11.9960    8.5080 H   0  0  0  0  0  0  0  0  0  0  0  0
   25.5210   12.9940    8.4420 C   0  0  0  0  0  0  0  0  0  0  0  0
   24.8260   14.2190    8.6190 C   0  0  0  0  0  0  0  0  0  0  0  0
   25.5440   15.3800    8.9820 C   0  0  0  0  0  0  0  0  0  0  0  0
   25.0210   16.3170    9.1050 H   0  0  0  0  0  0  0  0  0  0  0  0
   24.8500   11.8510    8.0940 O   0  0  0  0  0  0  0  0  0  0  0  0
   23.4360   11.7100    8.2520 C   0  0  0  0  0  0  0  0  0  0  0  0
   22.7180   13.0050    7.7980 C   0  0  0  0  0  0  0  0  0  0  0  0
   21.6740   12.9400    8.1030 H   0  0  0  0  0  0  0  0  0  0  0  0
   22.7760   13.0630    6.7110 H   0  0  0  0  0  0  0  0  0  0  0  0
   23.3110   14.3040    8.3820 C   0  0  2  0  0  0  0  0  0  0  0  0
   23.0360   15.4900    7.4390 C   0  0  0  0  0  0  0  0  0  0  0  0
   22.3290   16.4140    8.1240 N   0  0  0  0  0  0  0  0  0  0  0  0
   22.0880   15.9170    9.3720 C   0  0  0  0  0  0  0  0  0  0  0  0
   22.5740   14.7390    9.5680 N   0  0  0  0  0  0  0  0  0  0  0  0
   22.4630   14.1980   10.4140 H   0  0  0  0  0  0  0  0  0  0  0  0
   27.6390   16.5060    9.5380 C   0  0  0  0  0  0  0  0  0  0  0  0
   21.9330   17.7200    7.5940 C   0  0  0  0  0  0  0  0  0  0  0  0
   22.2760   17.8130    6.5640 H   0  0  0  0  0  0  0  0  0  0  0  0
   22.3810   18.5090    8.1990 H   0  0  0  0  0  0  0  0  0  0  0  0
   20.8470   17.8110    7.6250 H   0  0  0  0  0  0  0  0  0  0  0  0
   21.3210   16.6530   10.2630 N   0  0  0  0  0  0  0  0  0  0  0  0
   21.0940   16.2700   11.1700 H   0  0  0  0  0  0  0  0  0  0  0  0
   20.9900   17.5720   10.0050 H   0  0  0  0  0  0  0  0  0  0  0  0
   27.0450   17.4570   10.4030 C   0  0  0  0  0  0  0  0  0  0  0  0
   26.0630   17.2760   10.8140 H   0  0  0  0  0  0  0  0  0  0  0  0
   27.7420   18.6460   10.7270 C   0  0  0  0  0  0  0  0  0  0  0  0
   29.0290   18.9000   10.1880 C   0  0  0  0  0  0  0  0  0  0  0  0
   29.5540   19.8090   10.4410 H   0  0  0  0  0  0  0  0  0  0  0  0
   29.6220   17.9540    9.3150 C   0  0  0  0  0  0  0  0  0  0  0  0
   30.4890   18.1170    8.9490 H   0  0  0  0  0  0  0  0  0  0  0  0
   28.9240   16.7660    8.9880 C   0  0  0  0  0  0  0  0  0  0  0  0
   29.4990   15.8480    8.1230 F   0  0  0  0  0  0  0  0  0  0  0  0
   23.5150   15.6060    6.3060 O   0  0  0  0  0  0  0  0  0  0  0  0
   23.0150   10.5220    7.3590 C   0  0  0  0  0  0  0  0  0  0  0  0
   23.2670   10.7410    6.3210 H   0  0  0  0  0  0  0  0  0  0  0  0
   21.9400   10.3650    7.4470 H   0  0  0  0  0  0  0  0  0  0  0  0
   23.5410    9.6230    7.6790 H   0  0  0  0  0  0  0  0  0  0  0  0
   23.0750   11.3910    9.7230 C   0  0  0  0  0  0  0  0  0  0  0  0
   23.3700   12.2260   10.3590 H   0  0  0  0  0  0  0  0  0  0  0  0
   23.6010   10.4900   10.0390 H   0  0  0  0  0  0  0  0  0  0  0  0
   22.0000   11.2320    9.8070 H   0  0  0  0  0  0  0  0  0  0  0  0
   27.1410   19.6160   11.5850 Cl  0  0  0  0  0  0  0  0  0  0  0  0
  1  2  2  0
  1  8  1  0
  1 21  1  0
  2  3  1  0
  2  4  1  0
  4  5  1  0
  4  6  2  0
  6  7  1  0
  6 10  1  0
  7  8  2  0
  7 15  1  0
  8  9  1  0
 10 11  1  0
 11 12  1  0
 11 39  1  0
 11 43  1  0
 12 13  1  0
 12 14  1  0
 15 12  1  6
 15 16  1  0
 15 19  1  0
 16 17  1  0
 16 38  2  0
 17 18  1  0
 17 22  1  0
 18 19  2  0
 18 26  1  0
 19 20  1  0
 21 29  2  0
 21 36  1  0
 22 23  1  0
 22 24  1  0
 22 25  1  0
 26 27  1  0
 26 28  1  0
 29 30  1  0
 29 31  1  0
 31 32  2  0
 31 47  1  0
 32 33  1  0
 32 34  1  0
 34 35  1  0
 34 36  2  0
 36 37  1  0
 39 40  1  0
 39 41  1  0
 39 42  1  0
 43 44  1  0
 43 45  1  0
 43 46  1  0
M  CHG  1  19   1
M  END
>  <r_exp_dg>  (12) 
-10.2153

>  <experimental dG reference units>  (12) 
kcal/mol

>  <experimental dG reference field>  (12) 
r_exp_dg

>  <kJ/mol experimental dG>  (12) 
-42.7408152

>  <kcal/mol experimental dG>  (12) 
-10.2153

$$$$
22
     RDKit          3D

 57 60  0  0  1  0  0  0  0  0999 V2000
   26.9470   15.3250    9.1860 C   0  0  0  0  0  0  0  0  0  0  0  0
   27.6320   14.0950    9.0140 C   0  0  0  0  0  0  0  0  0  0  0  0
   28.7000   14.0480    9.1690 H   0  0  0  0  0  0  0  0  0  0  0  0
   26.9220   12.9310    8.6410 C   0  0  0  0  0  0  0  0  0  0  0  0
   27.4460   11.9960    8.5080 H   0  0  0  0  0  0  0  0  0  0  0  0
   25.5210   12.9940    8.4420 C   0  0  0  0  0  0  0  0  0  0  0  0
   24.8260   14.2190    8.6190 C   0  0  0  0  0  0  0  0  0  0  0  0
   25.5440   15.3800    8.9820 C   0  0  0  0  0  0  0  0  0  0  0  0
   25.0210   16.3170    9.1050 H   0  0  0  0  0  0  0  0  0  0  0  0
   24.8500   11.8510    8.0940 O   0  0  0  0  0  0  0  0  0  0  0  0
   23.4360   11.7100    8.2520 C   0  0  0  0  0  0  0  0  0  0  0  0
   22.7180   13.0050    7.7980 C   0  0  0  0  0  0  0  0  0  0  0  0
   21.6740   12.9400    8.1030 H   0  0  0  0  0  0  0  0  0  0  0  0
   22.7760   13.0630    6.7110 H   0  0  0  0  0  0  0  0  0  0  0  0
   23.3110   14.3040    8.3820 C   0  0  2  0  0  0  0  0  0  0  0  0
   23.0360   15.4900    7.4390 C   0  0  0  0  0  0  0  0  0  0  0  0
   22.3290   16.4140    8.1240 N   0  0  0  0  0  0  0  0  0  0  0  0
   22.0880   15.9170    9.3720 C   0  0  0  0  0  0  0  0  0  0  0  0
   22.5740   14.7390    9.5680 N   0  0  0  0  0  0  0  0  0  0  0  0
   22.4630   14.1980   10.4140 H   0  0  0  0  0  0  0  0  0  0  0  0
   27.6390   16.5060    9.5380 C   0  0  0  0  0  0  0  0  0  0  0  0
   21.9330   17.7200    7.5940 C   0  0  0  0  0  0  0  0  0  0  0  0
   22.2760   17.8130    6.5640 H   0  0  0  0  0  0  0  0  0  0  0  0
   22.3810   18.5090    8.1990 H   0  0  0  0  0  0  0  0  0  0  0  0
   20.8470   17.8110    7.6250 H   0  0  0  0  0  0  0  0  0  0  0  0
   21.3210   16.6530   10.2630 N   0  0  0  0  0  0  0  0  0  0  0  0
   21.0940   16.2700   11.1700 H   0  0  0  0  0  0  0  0  0  0  0  0
   20.9900   17.5720   10.0050 H   0  0  0  0  0  0  0  0  0  0  0  0
   27.0450   17.4570   10.4030 C   0  0  0  0  0  0  0  0  0  0  0  0
   26.0630   17.2760   10.8140 H   0  0  0  0  0  0  0  0  0  0  0  0
   27.7420   18.6460   10.7270 C   0  0  0  0  0  0  0  0  0  0  0  0
   29.0290   18.9000   10.1880 C   0  0  0  0  0  0  0  0  0  0  0  0
   29.5540   19.8090   10.4410 H   0  0  0  0  0  0  0  0  0  0  0  0
   29.6220   17.9540    9.3150 C   0  0  0  0  0  0  0  0  0  0  0  0
   30.9180   18.1970    8.7670 O   0  0  0  0  0  0  0  0  0  0  0  0
   30.9390   18.4760    7.3670 C   0  0  0  0  0  0  0  0  0  0  0  0
   32.2850   18.6990    6.9460 C   0  0  0  0  0  0  0  0  0  0  0  0
   32.7000   19.5470    7.4910 H   0  0  0  0  0  0  0  0  0  0  0  0
   32.3010   18.9120    5.8770 H   0  0  0  0  0  0  0  0  0  0  0  0
   32.8820   17.8100    7.1490 H   0  0  0  0  0  0  0  0  0  0  0  0
   30.1580   19.6410    7.1010 C   0  0  0  0  0  0  0  0  0  0  0  0
   30.5730   20.4890    7.6470 H   0  0  0  0  0  0  0  0  0  0  0  0
   29.1300   19.4700    7.4230 H   0  0  0  0  0  0  0  0  0  0  0  0
   30.1740   19.8530    6.0330 H   0  0  0  0  0  0  0  0  0  0  0  0
   30.5240   17.6280    6.8220 H   0  0  0  0  0  0  0  0  0  0  0  0
   28.9240   16.7660    8.9880 C   0  0  0  0  0  0  0  0  0  0  0  0
   29.3200   16.1330    8.3920 H   0  0  0  0  0  0  0  0  0  0  0  0
   23.5150   15.6060    6.3060 O   0  0  0  0  0  0  0  0  0  0  0  0
   23.0150   10.5220    7.3590 C   0  0  0  0  0  0  0  0  0  0  0  0
   23.2670   10.7410    6.3210 H   0  0  0  0  0  0  0  0  0  0  0  0
   21.9400   10.3650    7.4470 H   0  0  0  0  0  0  0  0  0  0  0  0
   23.5410    9.6230    7.6790 H   0  0  0  0  0  0  0  0  0  0  0  0
   23.0750   11.3910    9.7230 C   0  0  0  0  0  0  0  0  0  0  0  0
   23.3700   12.2260   10.3590 H   0  0  0  0  0  0  0  0  0  0  0  0
   23.6010   10.4900   10.0390 H   0  0  0  0  0  0  0  0  0  0  0  0
   22.0000   11.2320    9.8070 H   0  0  0  0  0  0  0  0  0  0  0  0
   27.3400   19.2950   11.3010 H   0  0  0  0  0  0  0  0  0  0  0  0
  1  2  2  0
  1  8  1  0
  1 21  1  0
  2  3  1  0
  2  4  1  0
  4  5  1  0
  4  6  2  0
  6  7  1  0
  6 10  1  0
  7  8  2  0
  7 15  1  0
  8  9  1  0
 10 11  1  0
 11 12  1  0
 11 49  1  0
 11 53  1  0
 12 13  1  0
 12 14  1  0
 15 12  1  6
 15 16  1  0
 15 19  1  0
 16 17  1  0
 16 48  2  0
 17 18  1  0
 17 22  1  0
 18 19  2  0
 18 26  1  0
 19 20  1  0
 21 29  2  0
 21 46  1  0
 22 23  1  0
 22 24  1  0
 22 25  1  0
 26 27  1  0
 26 28  1  0
 29 30  1  0
 29 31  1  0
 31 32  2  0
 31 57  1  0
 32 33  1  0
 32 34  1  0
 34 35  1  0
 34 46  2  0
 35 36  1  0
 36 37  1  0
 36 41  1  0
 36 45  1  0
 37 38  1  0
 37 39  1  0
 37 40  1  0
 41 42  1  0
 41 43  1  0
 41 44  1  0
 46 47  1  0
 49 50  1  0
 49 51  1  0
 49 52  1  0
 53 54  1  0
 53 55  1  0
 53 56  1  0
M  CHG  1  19   1
M  END
>  <r_exp_dg>  (13) 
-7.60692

>  <experimental dG reference units>  (13) 
kcal/mol

>  <experimental dG reference field>  (13) 
r_exp_dg

>  <kJ/mol experimental dG>  (13) 
-31.82735328

>  <kcal/mol experimental dG>  (13) 
-7.60692

$$$$
23
     RDKit          3D

 54 57  0  0  1  0  0  0  0  0999 V2000
   26.9470   15.3250    9.1860 C   0  0  0  0  0  0  0  0  0  0  0  0
   27.6320   14.0950    9.0140 C   0  0  0  0  0  0  0  0  0  0  0  0
   28.7000   14.0480    9.1690 H   0  0  0  0  0  0  0  0  0  0  0  0
   26.9220   12.9310    8.6410 C   0  0  0  0  0  0  0  0  0  0  0  0
   27.4460   11.9960    8.5080 H   0  0  0  0  0  0  0  0  0  0  0  0
   25.5210   12.9940    8.4420 C   0  0  0  0  0  0  0  0  0  0  0  0
   24.8260   14.2190    8.6190 C   0  0  0  0  0  0  0  0  0  0  0  0
   25.5440   15.3800    8.9820 C   0  0  0  0  0  0  0  0  0  0  0  0
   25.0210   16.3170    9.1050 H   0  0  0  0  0  0  0  0  0  0  0  0
   24.8500   11.8510    8.0940 O   0  0  0  0  0  0  0  0  0  0  0  0
   23.4360   11.7100    8.2520 C   0  0  0  0  0  0  0  0  0  0  0  0
   22.7180   13.0050    7.7980 C   0  0  0  0  0  0  0  0  0  0  0  0
   21.6740   12.9400    8.1030 H   0  0  0  0  0  0  0  0  0  0  0  0
   22.7760   13.0630    6.7110 H   0  0  0  0  0  0  0  0  0  0  0  0
   23.3110   14.3040    8.3820 C   0  0  2  0  0  0  0  0  0  0  0  0
   23.0360   15.4900    7.4390 C   0  0  0  0  0  0  0  0  0  0  0  0
   22.3290   16.4140    8.1240 N   0  0  0  0  0  0  0  0  0  0  0  0
   22.0880   15.9170    9.3720 C   0  0  0  0  0  0  0  0  0  0  0  0
   22.5740   14.7390    9.5680 N   0  0  0  0  0  0  0  0  0  0  0  0
   22.4630   14.1980   10.4140 H   0  0  0  0  0  0  0  0  0  0  0  0
   27.6390   16.5060    9.5380 C   0  0  0  0  0  0  0  0  0  0  0  0
   21.9330   17.7200    7.5940 C   0  0  0  0  0  0  0  0  0  0  0  0
   22.2760   17.8130    6.5640 H   0  0  0  0  0  0  0  0  0  0  0  0
   22.3810   18.5090    8.1990 H   0  0  0  0  0  0  0  0  0  0  0  0
   20.8470   17.8110    7.6250 H   0  0  0  0  0  0  0  0  0  0  0  0
   21.3210   16.6530   10.2630 N   0  0  0  0  0  0  0  0  0  0  0  0
   21.0940   16.2700   11.1700 H   0  0  0  0  0  0  0  0  0  0  0  0
   20.9900   17.5720   10.0050 H   0  0  0  0  0  0  0  0  0  0  0  0
   27.0450   17.4570   10.4030 C   0  0  0  0  0  0  0  0  0  0  0  0
   26.0630   17.2760   10.8140 H   0  0  0  0  0  0  0  0  0  0  0  0
   27.7420   18.6460   10.7270 C   0  0  0  0  0  0  0  0  0  0  0  0
   29.0290   18.9000   10.1880 C   0  0  0  0  0  0  0  0  0  0  0  0
   29.5540   19.8090   10.4410 H   0  0  0  0  0  0  0  0  0  0  0  0
   29.6220   17.9540    9.3150 C   0  0  0  0  0  0  0  0  0  0  0  0
   30.6020   18.1380    8.9010 H   0  0  0  0  0  0  0  0  0  0  0  0
   28.9240   16.7660    8.9880 C   0  0  0  0  0  0  0  0  0  0  0  0
   29.3720   16.0510    8.3140 H   0  0  0  0  0  0  0  0  0  0  0  0
   23.5150   15.6060    6.3060 O   0  0  0  0  0  0  0  0  0  0  0  0
   23.0150   10.5220    7.3590 C   0  0  0  0  0  0  0  0  0  0  0  0
   23.2670   10.7410    6.3210 H   0  0  0  0  0  0  0  0  0  0  0  0
   21.9400   10.3650    7.4470 H   0  0  0  0  0  0  0  0  0  0  0  0
   23.5410    9.6230    7.6790 H   0  0  0  0  0  0  0  0  0  0  0  0
   23.0750   11.3910    9.7230 C   0  0  0  0  0  0  0  0  0  0  0  0
   23.3700   12.2260   10.3590 H   0  0  0  0  0  0  0  0  0  0  0  0
   23.6010   10.4900   10.0390 H   0  0  0  0  0  0  0  0  0  0  0  0
   22.0000   11.2320    9.8070 H   0  0  0  0  0  0  0  0  0  0  0  0
   27.1410   19.6160   11.5850 O   0  0  0  0  0  0  0  0  0  0  0  0
   27.9590   20.7470   11.8850 C   0  0  0  0  0  0  0  0  0  0  0  0
   27.2460   21.6350   12.7470 C   0  0  0  0  0  0  0  0  0  0  0  0
   26.3350   21.9680   12.2510 H   0  0  0  0  0  0  0  0  0  0  0  0
   27.8710   22.4980   12.9760 H   0  0  0  0  0  0  0  0  0  0  0  0
   26.9890   21.1170   13.6710 H   0  0  0  0  0  0  0  0  0  0  0  0
   28.2170   21.2640   10.9610 H   0  0  0  0  0  0  0  0  0  0  0  0
   28.8710   20.4140   12.3810 H   0  0  0  0  0  0  0  0  0  0  0  0
  1  2  2  0
  1  8  1  0
  1 21  1  0
  2  3  1  0
  2  4  1  0
  4  5  1  0
  4  6  2  0
  6  7  1  0
  6 10  1  0
  7  8  2  0
  7 15  1  0
  8  9  1  0
 10 11  1  0
 11 12  1  0
 11 39  1  0
 11 43  1  0
 12 13  1  0
 12 14  1  0
 15 12  1  6
 15 16  1  0
 15 19  1  0
 16 17  1  0
 16 38  2  0
 17 18  1  0
 17 22  1  0
 18 19  2  0
 18 26  1  0
 19 20  1  0
 21 29  2  0
 21 36  1  0
 22 23  1  0
 22 24  1  0
 22 25  1  0
 26 27  1  0
 26 28  1  0
 29 30  1  0
 29 31  1  0
 31 32  2  0
 31 47  1  0
 32 33  1  0
 32 34  1  0
 34 35  1  0
 34 36  2  0
 36 37  1  0
 39 40  1  0
 39 41  1  0
 39 42  1  0
 43 44  1  0
 43 45  1  0
 43 46  1  0
 47 48  1  0
 48 49  1  0
 48 53  1  0
 48 54  1  0
 49 50  1  0
 49 51  1  0
 49 52  1  0
M  CHG  1  19   1
M  END
>  <r_exp_dg>  (14) 
-9.81896

>  <experimental dG reference units>  (14) 
kcal/mol

>  <experimental dG reference field>  (14) 
r_exp_dg

>  <kJ/mol experimental dG>  (14) 
-41.08252864000001

>  <kcal/mol experimental dG>  (14) 
-9.81896

$$$$
24
     RDKit          3D

 50 53  0  0  1  0  0  0  0  0999 V2000
   26.9470   15.3250    9.1860 C   0  0  0  0  0  0  0  0  0  0  0  0
   27.6320   14.0950    9.0140 C   0  0  0  0  0  0  0  0  0  0  0  0
   28.7000   14.0480    9.1690 H   0  0  0  0  0  0  0  0  0  0  0  0
   26.9220   12.9310    8.6410 C   0  0  0  0  0  0  0  0  0  0  0  0
   27.4460   11.9960    8.5080 H   0  0  0  0  0  0  0  0  0  0  0  0
   25.5210   12.9940    8.4420 C   0  0  0  0  0  0  0  0  0  0  0  0
   24.8260   14.2190    8.6190 C   0  0  0  0  0  0  0  0  0  0  0  0
   25.5440   15.3800    8.9820 C   0  0  0  0  0  0  0  0  0  0  0  0
   25.0210   16.3170    9.1050 H   0  0  0  0  0  0  0  0  0  0  0  0
   24.8500   11.8510    8.0940 O   0  0  0  0  0  0  0  0  0  0  0  0
   23.4360   11.7100    8.2520 C   0  0  0  0  0  0  0  0  0  0  0  0
   22.7180   13.0050    7.7980 C   0  0  0  0  0  0  0  0  0  0  0  0
   21.6740   12.9400    8.1030 H   0  0  0  0  0  0  0  0  0  0  0  0
   22.7760   13.0630    6.7110 H   0  0  0  0  0  0  0  0  0  0  0  0
   23.3110   14.3040    8.3820 C   0  0  2  0  0  0  0  0  0  0  0  0
   23.0360   15.4900    7.4390 C   0  0  0  0  0  0  0  0  0  0  0  0
   22.3290   16.4140    8.1240 N   0  0  0  0  0  0  0  0  0  0  0  0
   22.0880   15.9170    9.3720 C   0  0  0  0  0  0  0  0  0  0  0  0
   22.5740   14.7390    9.5680 N   0  0  0  0  0  0  0  0  0  0  0  0
   22.4630   14.1980   10.4140 H   0  0  0  0  0  0  0  0  0  0  0  0
   27.6390   16.5060    9.5380 C   0  0  0  0  0  0  0  0  0  0  0  0
   21.9330   17.7200    7.5940 C   0  0  0  0  0  0  0  0  0  0  0  0
   22.2760   17.8130    6.5640 H   0  0  0  0  0  0  0  0  0  0  0  0
   22.3810   18.5090    8.1990 H   0  0  0  0  0  0  0  0  0  0  0  0
   20.8470   17.8110    7.6250 H   0  0  0  0  0  0  0  0  0  0  0  0
   21.3210   16.6530   10.2630 N   0  0  0  0  0  0  0  0  0  0  0  0
   21.0940   16.2700   11.1700 H   0  0  0  0  0  0  0  0  0  0  0  0
   20.9900   17.5720   10.0050 H   0  0  0  0  0  0  0  0  0  0  0  0
   27.0450   17.4570   10.4030 C   0  0  0  0  0  0  0  0  0  0  0  0
   26.0630   17.2760   10.8140 H   0  0  0  0  0  0  0  0  0  0  0  0
   27.7420   18.6460   10.7270 C   0  0  0  0  0  0  0  0  0  0  0  0
   29.0290   18.9000   10.1880 C   0  0  0  0  0  0  0  0  0  0  0  0
   29.5540   19.8090   10.4410 H   0  0  0  0  0  0  0  0  0  0  0  0
   29.6220   17.9540    9.3150 C   0  0  0  0  0  0  0  0  0  0  0  0
   30.6020   18.1380    8.9010 H   0  0  0  0  0  0  0  0  0  0  0  0
   28.9240   16.7660    8.9880 C   0  0  0  0  0  0  0  0  0  0  0  0
   29.3720   16.0510    8.3140 H   0  0  0  0  0  0  0  0  0  0  0  0
   23.5150   15.6060    6.3060 O   0  0  0  0  0  0  0  0  0  0  0  0
   23.0150   10.5220    7.3590 C   0  0  0  0  0  0  0  0  0  0  0  0
   23.2670   10.7410    6.3210 H   0  0  0  0  0  0  0  0  0  0  0  0
   21.9400   10.3650    7.4470 H   0  0  0  0  0  0  0  0  0  0  0  0
   23.5410    9.6230    7.6790 H   0  0  0  0  0  0  0  0  0  0  0  0
   23.0750   11.3910    9.7230 C   0  0  0  0  0  0  0  0  0  0  0  0
   23.3700   12.2260   10.3590 H   0  0  0  0  0  0  0  0  0  0  0  0
   23.6010   10.4900   10.0390 H   0  0  0  0  0  0  0  0  0  0  0  0
   22.0000   11.2320    9.8070 H   0  0  0  0  0  0  0  0  0  0  0  0
   27.1410   19.6160   11.5850 C   0  0  0  0  0  0  0  0  0  0  0  0
   25.8740   19.2890   12.0420 F   0  0  0  0  0  0  0  0  0  0  0  0
   27.0520   20.8100   10.8880 F   0  0  0  0  0  0  0  0  0  0  0  0
   27.9650   19.7850   12.6870 F   0  0  0  0  0  0  0  0  0  0  0  0
  1  2  2  0
  1  8  1  0
  1 21  1  0
  2  3  1  0
  2  4  1  0
  4  5  1  0
  4  6  2  0
  6  7  1  0
  6 10  1  0
  7  8  2  0
  7 15  1  0
  8  9  1  0
 10 11  1  0
 11 12  1  0
 11 39  1  0
 11 43  1  0
 12 13  1  0
 12 14  1  0
 15 12  1  6
 15 16  1  0
 15 19  1  0
 16 17  1  0
 16 38  2  0
 17 18  1  0
 17 22  1  0
 18 19  2  0
 18 26  1  0
 19 20  1  0
 21 29  2  0
 21 36  1  0
 22 23  1  0
 22 24  1  0
 22 25  1  0
 26 27  1  0
 26 28  1  0
 29 30  1  0
 29 31  1  0
 31 32  2  0
 31 47  1  0
 32 33  1  0
 32 34  1  0
 34 35  1  0
 34 36  2  0
 36 37  1  0
 39 40  1  0
 39 41  1  0
 39 42  1  0
 43 44  1  0
 43 45  1  0
 43 46  1  0
 47 48  1  0
 47 49  1  0
 47 50  1  0
M  CHG  1  19   1
M  END
>  <r_exp_dg>  (15) 
-9.78584

>  <experimental dG reference units>  (15) 
kcal/mol

>  <experimental dG reference field>  (15) 
r_exp_dg

>  <kJ/mol experimental dG>  (15) 
-40.94395456

>  <kcal/mol experimental dG>  (15) 
-9.78584

$$$$
25
     RDKit          3D

 51 54  0  0  1  0  0  0  0  0999 V2000
   26.9470   15.3250    9.1860 C   0  0  0  0  0  0  0  0  0  0  0  0
   27.6320   14.0950    9.0140 C   0  0  0  0  0  0  0  0  0  0  0  0
   28.7000   14.0480    9.1690 H   0  0  0  0  0  0  0  0  0  0  0  0
   26.9220   12.9310    8.6410 C   0  0  0  0  0  0  0  0  0  0  0  0
   27.4460   11.9960    8.5080 H   0  0  0  0  0  0  0  0  0  0  0  0
   25.5210   12.9940    8.4420 C   0  0  0  0  0  0  0  0  0  0  0  0
   24.8260   14.2190    8.6190 C   0  0  0  0  0  0  0  0  0  0  0  0
   25.5440   15.3800    8.9820 C   0  0  0  0  0  0  0  0  0  0  0  0
   25.0210   16.3170    9.1050 H   0  0  0  0  0  0  0  0  0  0  0  0
   24.8500   11.8510    8.0940 O   0  0  0  0  0  0  0  0  0  0  0  0
   23.4360   11.7100    8.2520 C   0  0  0  0  0  0  0  0  0  0  0  0
   22.7180   13.0050    7.7980 C   0  0  0  0  0  0  0  0  0  0  0  0
   21.6740   12.9400    8.1030 H   0  0  0  0  0  0  0  0  0  0  0  0
   22.7760   13.0630    6.7110 H   0  0  0  0  0  0  0  0  0  0  0  0
   23.3110   14.3040    8.3820 C   0  0  2  0  0  0  0  0  0  0  0  0
   23.0360   15.4900    7.4390 C   0  0  0  0  0  0  0  0  0  0  0  0
   22.3290   16.4140    8.1240 N   0  0  0  0  0  0  0  0  0  0  0  0
   22.0880   15.9170    9.3720 C   0  0  0  0  0  0  0  0  0  0  0  0
   22.5740   14.7390    9.5680 N   0  0  0  0  0  0  0  0  0  0  0  0
   22.4630   14.1980   10.4140 H   0  0  0  0  0  0  0  0  0  0  0  0
   27.6390   16.5060    9.5380 C   0  0  0  0  0  0  0  0  0  0  0  0
   21.9330   17.7200    7.5940 C   0  0  0  0  0  0  0  0  0  0  0  0
   22.2760   17.8130    6.5640 H   0  0  0  0  0  0  0  0  0  0  0  0
   22.3810   18.5090    8.1990 H   0  0  0  0  0  0  0  0  0  0  0  0
   20.8470   17.8110    7.6250 H   0  0  0  0  0  0  0  0  0  0  0  0
   21.3210   16.6530   10.2630 N   0  0  0  0  0  0  0  0  0  0  0  0
   21.0940   16.2700   11.1700 H   0  0  0  0  0  0  0  0  0  0  0  0
   20.9900   17.5720   10.0050 H   0  0  0  0  0  0  0  0  0  0  0  0
   27.0450   17.4570   10.4030 C   0  0  0  0  0  0  0  0  0  0  0  0
   26.0630   17.2760   10.8140 H   0  0  0  0  0  0  0  0  0  0  0  0
   27.7420   18.6460   10.7270 C   0  0  0  0  0  0  0  0  0  0  0  0
   29.0290   18.9000   10.1880 C   0  0  0  0  0  0  0  0  0  0  0  0
   29.5540   19.8090   10.4410 H   0  0  0  0  0  0  0  0  0  0  0  0
   29.6220   17.9540    9.3150 C   0  0  0  0  0  0  0  0  0  0  0  0
   30.6020   18.1380    8.9010 H   0  0  0  0  0  0  0  0  0  0  0  0
   28.9240   16.7660    8.9880 C   0  0  0  0  0  0  0  0  0  0  0  0
   29.3720   16.0510    8.3140 H   0  0  0  0  0  0  0  0  0  0  0  0
   23.5150   15.6060    6.3060 O   0  0  0  0  0  0  0  0  0  0  0  0
   23.0150   10.5220    7.3590 C   0  0  0  0  0  0  0  0  0  0  0  0
   23.2670   10.7410    6.3210 H   0  0  0  0  0  0  0  0  0  0  0  0
   21.9400   10.3650    7.4470 H   0  0  0  0  0  0  0  0  0  0  0  0
   23.5410    9.6230    7.6790 H   0  0  0  0  0  0  0  0  0  0  0  0
   23.0750   11.3910    9.7230 C   0  0  0  0  0  0  0  0  0  0  0  0
   23.3700   12.2260   10.3590 H   0  0  0  0  0  0  0  0  0  0  0  0
   23.6010   10.4900   10.0390 H   0  0  0  0  0  0  0  0  0  0  0  0
   22.0000   11.2320    9.8070 H   0  0  0  0  0  0  0  0  0  0  0  0
   27.1410   19.6160   11.5850 S   0  0  0  0  0  0  0  0  0  0  0  0
   27.9590   20.7470   11.8850 C   0  0  0  0  0  0  0  0  0  0  0  0
   27.4150   21.4250   12.5430 H   0  0  0  0  0  0  0  0  0  0  0  0
   28.2170   21.2640   10.9610 H   0  0  0  0  0  0  0  0  0  0  0  0
   28.8710   20.4140   12.3810 H   0  0  0  0  0  0  0  0  0  0  0  0
  1  2  2  0
  1  8  1  0
  1 21  1  0
  2  3  1  0
  2  4  1  0
  4  5  1  0
  4  6  2  0
  6  7  1  0
  6 10  1  0
  7  8  2  0
  7 15  1  0
  8  9  1  0
 10 11  1  0
 11 12  1  0
 11 39  1  0
 11 43  1  0
 12 13  1  0
 12 14  1  0
 15 12  1  6
 15 16  1  0
 15 19  1  0
 16 17  1  0
 16 38  2  0
 17 18  1  0
 17 22  1  0
 18 19  2  0
 18 26  1  0
 19 20  1  0
 21 29  2  0
 21 36  1  0
 22 23  1  0
 22 24  1  0
 22 25  1  0
 26 27  1  0
 26 28  1  0
 29 30  1  0
 29 31  1  0
 31 32  2  0
 31 47  1  0
 32 33  1  0
 32 34  1  0
 34 35  1  0
 34 36  2  0
 36 37  1  0
 39 40  1  0
 39 41  1  0
 39 42  1  0
 43 44  1  0
 43 45  1  0
 43 46  1  0
 47 48  1  0
 48 49  1  0
 48 50  1  0
 48 51  1  0
M  CHG  1  19   1
M  END
>  <r_exp_dg>  (16) 
-8.87004

>  <experimental dG reference units>  (16) 
kcal/mol

>  <experimental dG reference field>  (16) 
r_exp_dg

>  <kJ/mol experimental dG>  (16) 
-37.11224736

>  <kcal/mol experimental dG>  (16) 
-8.87004

$$$$
26
     RDKit          3D

 51 54  0  0  1  0  0  0  0  0999 V2000
   26.9470   15.3250    9.1860 C   0  0  0  0  0  0  0  0  0  0  0  0
   27.6320   14.0950    9.0140 C   0  0  0  0  0  0  0  0  0  0  0  0
   28.7000   14.0480    9.1690 H   0  0  0  0  0  0  0  0  0  0  0  0
   26.9220   12.9310    8.6410 C   0  0  0  0  0  0  0  0  0  0  0  0
   27.4460   11.9960    8.5080 H   0  0  0  0  0  0  0  0  0  0  0  0
   25.5210   12.9940    8.4420 C   0  0  0  0  0  0  0  0  0  0  0  0
   24.8260   14.2190    8.6190 C   0  0  0  0  0  0  0  0  0  0  0  0
   25.5440   15.3800    8.9820 C   0  0  0  0  0  0  0  0  0  0  0  0
   25.0210   16.3170    9.1050 H   0  0  0  0  0  0  0  0  0  0  0  0
   24.8500   11.8510    8.0940 O   0  0  0  0  0  0  0  0  0  0  0  0
   23.4360   11.7100    8.2520 C   0  0  0  0  0  0  0  0  0  0  0  0
   22.7180   13.0050    7.7980 C   0  0  0  0  0  0  0  0  0  0  0  0
   21.6740   12.9400    8.1030 H   0  0  0  0  0  0  0  0  0  0  0  0
   22.7760   13.0630    6.7110 H   0  0  0  0  0  0  0  0  0  0  0  0
   23.3110   14.3040    8.3820 C   0  0  2  0  0  0  0  0  0  0  0  0
   23.0360   15.4900    7.4390 C   0  0  0  0  0  0  0  0  0  0  0  0
   22.3290   16.4140    8.1240 N   0  0  0  0  0  0  0  0  0  0  0  0
   22.0880   15.9170    9.3720 C   0  0  0  0  0  0  0  0  0  0  0  0
   22.5740   14.7390    9.5680 N   0  0  0  0  0  0  0  0  0  0  0  0
   22.4630   14.1980   10.4140 H   0  0  0  0  0  0  0  0  0  0  0  0
   27.6390   16.5060    9.5380 C   0  0  0  0  0  0  0  0  0  0  0  0
   21.9330   17.7200    7.5940 C   0  0  0  0  0  0  0  0  0  0  0  0
   22.2760   17.8130    6.5640 H   0  0  0  0  0  0  0  0  0  0  0  0
   22.3810   18.5090    8.1990 H   0  0  0  0  0  0  0  0  0  0  0  0
   20.8470   17.8110    7.6250 H   0  0  0  0  0  0  0  0  0  0  0  0
   21.3210   16.6530   10.2630 N   0  0  0  0  0  0  0  0  0  0  0  0
   21.0940   16.2700   11.1700 H   0  0  0  0  0  0  0  0  0  0  0  0
   20.9900   17.5720   10.0050 H   0  0  0  0  0  0  0  0  0  0  0  0
   27.0450   17.4570   10.4030 C   0  0  0  0  0  0  0  0  0  0  0  0
   26.0630   17.2760   10.8140 H   0  0  0  0  0  0  0  0  0  0  0  0
   27.7420   18.6460   10.7270 C   0  0  0  0  0  0  0  0  0  0  0  0
   29.0290   18.9000   10.1880 C   0  0  0  0  0  0  0  0  0  0  0  0
   29.5540   19.8090   10.4410 H   0  0  0  0  0  0  0  0  0  0  0  0
   29.6220   17.9540    9.3150 C   0  0  0  0  0  0  0  0  0  0  0  0
   30.6020   18.1380    8.9010 H   0  0  0  0  0  0  0  0  0  0  0  0
   28.9240   16.7660    8.9880 C   0  0  0  0  0  0  0  0  0  0  0  0
   29.3720   16.0510    8.3140 H   0  0  0  0  0  0  0  0  0  0  0  0
   23.5150   15.6060    6.3060 O   0  0  0  0  0  0  0  0  0  0  0  0
   23.0150   10.5220    7.3590 C   0  0  0  0  0  0  0  0  0  0  0  0
   23.2670   10.7410    6.3210 H   0  0  0  0  0  0  0  0  0  0  0  0
   21.9400   10.3650    7.4470 H   0  0  0  0  0  0  0  0  0  0  0  0
   23.5410    9.6230    7.6790 H   0  0  0  0  0  0  0  0  0  0  0  0
   23.0750   11.3910    9.7230 C   0  0  0  0  0  0  0  0  0  0  0  0
   23.3700   12.2260   10.3590 H   0  0  0  0  0  0  0  0  0  0  0  0
   23.6010   10.4900   10.0390 H   0  0  0  0  0  0  0  0  0  0  0  0
   22.0000   11.2320    9.8070 H   0  0  0  0  0  0  0  0  0  0  0  0
   27.1410   19.6160   11.5850 O   0  0  0  0  0  0  0  0  0  0  0  0
   27.9590   20.7470   11.8850 C   0  0  0  0  0  0  0  0  0  0  0  0
   27.2670   21.6090   12.7220 F   0  0  0  0  0  0  0  0  0  0  0  0
   28.2870   21.4050   10.7100 F   0  0  0  0  0  0  0  0  0  0  0  0
   28.8710   20.4140   12.3810 H   0  0  0  0  0  0  0  0  0  0  0  0
  1  2  2  0
  1  8  1  0
  1 21  1  0
  2  3  1  0
  2  4  1  0
  4  5  1  0
  4  6  2  0
  6  7  1  0
  6 10  1  0
  7  8  2  0
  7 15  1  0
  8  9  1  0
 10 11  1  0
 11 12  1  0
 11 39  1  0
 11 43  1  0
 12 13  1  0
 12 14  1  0
 15 12  1  6
 15 16  1  0
 15 19  1  0
 16 17  1  0
 16 38  2  0
 17 18  1  0
 17 22  1  0
 18 19  2  0
 18 26  1  0
 19 20  1  0
 21 29  2  0
 21 36  1  0
 22 23  1  0
 22 24  1  0
 22 25  1  0
 26 27  1  0
 26 28  1  0
 29 30  1  0
 29 31  1  0
 31 32  2  0
 31 47  1  0
 32 33  1  0
 32 34  1  0
 34 35  1  0
 34 36  2  0
 36 37  1  0
 39 40  1  0
 39 41  1  0
 39 42  1  0
 43 44  1  0
 43 45  1  0
 43 46  1  0
 47 48  1  0
 48 49  1  0
 48 50  1  0
 48 51  1  0
M  CHG  1  19   1
M  END
>  <r_exp_dg>  (17) 
-10.3651

>  <experimental dG reference units>  (17) 
kcal/mol

>  <experimental dG reference field>  (17) 
r_exp_dg

>  <kJ/mol experimental dG>  (17) 
-43.3675784

>  <kcal/mol experimental dG>  (17) 
-10.3651

$$$$
27
     RDKit          3D

 47 50  0  0  1  0  0  0  0  0999 V2000
   26.9470   15.3250    9.1860 C   0  0  0  0  0  0  0  0  0  0  0  0
   27.6320   14.0950    9.0140 C   0  0  0  0  0  0  0  0  0  0  0  0
   28.7000   14.0480    9.1690 H   0  0  0  0  0  0  0  0  0  0  0  0
   26.9220   12.9310    8.6410 C   0  0  0  0  0  0  0  0  0  0  0  0
   27.4460   11.9960    8.5080 H   0  0  0  0  0  0  0  0  0  0  0  0
   25.5210   12.9940    8.4420 C   0  0  0  0  0  0  0  0  0  0  0  0
   24.8260   14.2190    8.6190 C   0  0  0  0  0  0  0  0  0  0  0  0
   25.5440   15.3800    8.9820 C   0  0  0  0  0  0  0  0  0  0  0  0
   25.0210   16.3170    9.1050 H   0  0  0  0  0  0  0  0  0  0  0  0
   24.8500   11.8510    8.0940 O   0  0  0  0  0  0  0  0  0  0  0  0
   23.4360   11.7100    8.2520 C   0  0  0  0  0  0  0  0  0  0  0  0
   22.7180   13.0050    7.7980 C   0  0  0  0  0  0  0  0  0  0  0  0
   21.6740   12.9400    8.1030 H   0  0  0  0  0  0  0  0  0  0  0  0
   22.7760   13.0630    6.7110 H   0  0  0  0  0  0  0  0  0  0  0  0
   23.3110   14.3040    8.3820 C   0  0  2  0  0  0  0  0  0  0  0  0
   23.0360   15.4900    7.4390 C   0  0  0  0  0  0  0  0  0  0  0  0
   22.3290   16.4140    8.1240 N   0  0  0  0  0  0  0  0  0  0  0  0
   22.0880   15.9170    9.3720 C   0  0  0  0  0  0  0  0  0  0  0  0
   22.5740   14.7390    9.5680 N   0  0  0  0  0  0  0  0  0  0  0  0
   22.4630   14.1980   10.4140 H   0  0  0  0  0  0  0  0  0  0  0  0
   27.6390   16.5060    9.5380 C   0  0  0  0  0  0  0  0  0  0  0  0
   21.9330   17.7200    7.5940 C   0  0  0  0  0  0  0  0  0  0  0  0
   22.2760   17.8130    6.5640 H   0  0  0  0  0  0  0  0  0  0  0  0
   22.3810   18.5090    8.1990 H   0  0  0  0  0  0  0  0  0  0  0  0
   20.8470   17.8110    7.6250 H   0  0  0  0  0  0  0  0  0  0  0  0
   21.3210   16.6530   10.2630 N   0  0  0  0  0  0  0  0  0  0  0  0
   21.0940   16.2700   11.1700 H   0  0  0  0  0  0  0  0  0  0  0  0
   20.9900   17.5720   10.0050 H   0  0  0  0  0  0  0  0  0  0  0  0
   27.0450   17.4570   10.4030 C   0  0  0  0  0  0  0  0  0  0  0  0
   26.0630   17.2760   10.8140 H   0  0  0  0  0  0  0  0  0  0  0  0
   27.7420   18.6460   10.7270 C   0  0  0  0  0  0  0  0  0  0  0  0
   27.1610   19.5710   11.5800 F   0  0  0  0  0  0  0  0  0  0  0  0
   29.0290   18.9000   10.1880 C   0  0  0  0  0  0  0  0  0  0  0  0
   29.5540   19.8090   10.4410 H   0  0  0  0  0  0  0  0  0  0  0  0
   29.6220   17.9540    9.3150 C   0  0  0  0  0  0  0  0  0  0  0  0
   30.6020   18.1380    8.9010 H   0  0  0  0  0  0  0  0  0  0  0  0
   28.9240   16.7660    8.9880 C   0  0  0  0  0  0  0  0  0  0  0  0
   29.3720   16.0510    8.3140 H   0  0  0  0  0  0  0  0  0  0  0  0
   23.5150   15.6060    6.3060 O   0  0  0  0  0  0  0  0  0  0  0  0
   23.0150   10.5220    7.3590 C   0  0  0  0  0  0  0  0  0  0  0  0
   23.2670   10.7410    6.3210 H   0  0  0  0  0  0  0  0  0  0  0  0
   21.9400   10.3650    7.4470 H   0  0  0  0  0  0  0  0  0  0  0  0
   23.5410    9.6230    7.6790 H   0  0  0  0  0  0  0  0  0  0  0  0
   23.0750   11.3910    9.7230 C   0  0  0  0  0  0  0  0  0  0  0  0
   23.3700   12.2260   10.3590 H   0  0  0  0  0  0  0  0  0  0  0  0
   23.6010   10.4900   10.0390 H   0  0  0  0  0  0  0  0  0  0  0  0
   22.0000   11.2320    9.8070 H   0  0  0  0  0  0  0  0  0  0  0  0
  1  2  2  0
  1  8  1  0
  1 21  1  0
  2  3  1  0
  2  4  1  0
  4  5  1  0
  4  6  2  0
  6  7  1  0
  6 10  1  0
  7  8  2  0
  7 15  1  0
  8  9  1  0
 10 11  1  0
 11 12  1  0
 11 40  1  0
 11 44  1  0
 12 13  1  0
 12 14  1  0
 15 12  1  6
 15 16  1  0
 15 19  1  0
 16 17  1  0
 16 39  2  0
 17 18  1  0
 17 22  1  0
 18 19  2  0
 18 26  1  0
 19 20  1  0
 21 29  2  0
 21 37  1  0
 22 23  1  0
 22 24  1  0
 22 25  1  0
 26 27  1  0
 26 28  1  0
 29 30  1  0
 29 31  1  0
 31 32  1  0
 31 33  2  0
 33 34  1  0
 33 35  1  0
 35 36  1  0
 35 37  2  0
 37 38  1  0
 40 41  1  0
 40 42  1  0
 40 43  1  0
 44 45  1  0
 44 46  1  0
 44 47  1  0
M  CHG  1  19   1
M  END
>  <r_exp_dg>  (18) 
-9.61238

>  <experimental dG reference units>  (18) 
kcal/mol

>  <experimental dG reference field>  (18) 
r_exp_dg

>  <kJ/mol experimental dG>  (18) 
-40.21819792

>  <kcal/mol experimental dG>  (18) 
-9.61238

$$$$
28
     RDKit          3D

 53 56  0  0  1  0  0  0  0  0999 V2000
   26.9470   15.3250    9.1860 C   0  0  0  0  0  0  0  0  0  0  0  0
   27.6320   14.0950    9.0140 C   0  0  0  0  0  0  0  0  0  0  0  0
   28.7000   14.0480    9.1690 H   0  0  0  0  0  0  0  0  0  0  0  0
   26.9220   12.9310    8.6410 C   0  0  0  0  0  0  0  0  0  0  0  0
   27.4460   11.9960    8.5080 H   0  0  0  0  0  0  0  0  0  0  0  0
   25.5210   12.9940    8.4420 C   0  0  0  0  0  0  0  0  0  0  0  0
   24.8260   14.2190    8.6190 C   0  0  0  0  0  0  0  0  0  0  0  0
   25.5440   15.3800    8.9820 C   0  0  0  0  0  0  0  0  0  0  0  0
   25.0210   16.3170    9.1050 H   0  0  0  0  0  0  0  0  0  0  0  0
   24.8500   11.8510    8.0940 O   0  0  0  0  0  0  0  0  0  0  0  0
   23.4360   11.7100    8.2520 C   0  0  0  0  0  0  0  0  0  0  0  0
   22.7180   13.0050    7.7980 C   0  0  0  0  0  0  0  0  0  0  0  0
   21.6740   12.9400    8.1030 H   0  0  0  0  0  0  0  0  0  0  0  0
   22.7760   13.0630    6.7110 H   0  0  0  0  0  0  0  0  0  0  0  0
   23.3110   14.3040    8.3820 C   0  0  2  0  0  0  0  0  0  0  0  0
   23.0360   15.4900    7.4390 C   0  0  0  0  0  0  0  0  0  0  0  0
   22.3290   16.4140    8.1240 N   0  0  0  0  0  0  0  0  0  0  0  0
   22.0880   15.9170    9.3720 C   0  0  0  0  0  0  0  0  0  0  0  0
   22.5740   14.7390    9.5680 N   0  0  0  0  0  0  0  0  0  0  0  0
   22.4630   14.1980   10.4140 H   0  0  0  0  0  0  0  0  0  0  0  0
   21.9330   17.7200    7.5940 C   0  0  0  0  0  0  0  0  0  0  0  0
   22.2760   17.8130    6.5640 H   0  0  0  0  0  0  0  0  0  0  0  0
   22.3810   18.5090    8.1990 H   0  0  0  0  0  0  0  0  0  0  0  0
   20.8470   17.8110    7.6250 H   0  0  0  0  0  0  0  0  0  0  0  0
   21.3210   16.6530   10.2630 N   0  0  0  0  0  0  0  0  0  0  0  0
   21.0940   16.2700   11.1700 H   0  0  0  0  0  0  0  0  0  0  0  0
   20.9900   17.5720   10.0050 H   0  0  0  0  0  0  0  0  0  0  0  0
   23.5150   15.6060    6.3060 O   0  0  0  0  0  0  0  0  0  0  0  0
   23.0150   10.5220    7.3590 C   0  0  0  0  0  0  0  0  0  0  0  0
   23.2670   10.7410    6.3210 H   0  0  0  0  0  0  0  0  0  0  0  0
   21.9400   10.3650    7.4470 H   0  0  0  0  0  0  0  0  0  0  0  0
   23.5410    9.6230    7.6790 H   0  0  0  0  0  0  0  0  0  0  0  0
   23.0750   11.3910    9.7230 C   0  0  0  0  0  0  0  0  0  0  0  0
   23.3700   12.2260   10.3590 H   0  0  0  0  0  0  0  0  0  0  0  0
   23.6010   10.4900   10.0390 H   0  0  0  0  0  0  0  0  0  0  0  0
   22.0000   11.2320    9.8070 H   0  0  0  0  0  0  0  0  0  0  0  0
   28.9310   18.1330   11.5680 C   0  0  0  0  0  0  0  0  0  0  0  0
   29.4680   19.0480   11.8410 H   0  0  0  0  0  0  0  0  0  0  0  0
   28.8240   17.5400   12.4850 H   0  0  0  0  0  0  0  0  0  0  0  0
   29.7470   17.3440   10.5470 C   0  0  0  0  0  0  0  0  0  0  0  0
   30.7030   17.0450   10.9900 H   0  0  0  0  0  0  0  0  0  0  0  0
   29.9780   17.9880    9.6900 H   0  0  0  0  0  0  0  0  0  0  0  0
   28.9960   16.1060   10.0620 C   0  0  0  0  0  0  0  0  0  0  0  0
   28.8920   15.3950   10.8920 H   0  0  0  0  0  0  0  0  0  0  0  0
   29.5780   15.6040    9.2810 H   0  0  0  0  0  0  0  0  0  0  0  0
   27.6130   16.4610    9.5250 C   0  0  0  0  0  0  0  0  0  0  0  0
   27.7200   17.0540    8.6070 H   0  0  0  0  0  0  0  0  0  0  0  0
   26.7980   17.2500   10.5450 C   0  0  0  0  0  0  0  0  0  0  0  0
   26.5660   16.6060   11.4030 H   0  0  0  0  0  0  0  0  0  0  0  0
   25.8410   17.5490   10.1020 H   0  0  0  0  0  0  0  0  0  0  0  0
   27.5480   18.4880   11.0300 C   0  0  0  0  0  0  0  0  0  0  0  0
   26.9660   18.9900   11.8120 H   0  0  0  0  0  0  0  0  0  0  0  0
   27.6520   19.1990   10.2010 H   0  0  0  0  0  0  0  0  0  0  0  0
  1  2  2  0
  1  8  1  0
  1 46  1  0
  2  3  1  0
  2  4  1  0
  4  5  1  0
  4  6  2  0
  6  7  1  0
  6 10  1  0
  7  8  2  0
  7 15  1  0
  8  9  1  0
 10 11  1  0
 11 12  1  0
 11 29  1  0
 11 33  1  0
 12 13  1  0
 12 14  1  0
 15 12  1  6
 15 16  1  0
 15 19  1  0
 16 17  1  0
 16 28  2  0
 17 18  1  0
 17 21  1  0
 18 19  2  0
 18 25  1  0
 19 20  1  0
 21 22  1  0
 21 23  1  0
 21 24  1  0
 25 26  1  0
 25 27  1  0
 29 30  1  0
 29 31  1  0
 29 32  1  0
 33 34  1  0
 33 35  1  0
 33 36  1  0
 37 38  1  0
 37 39  1  0
 37 40  1  0
 37 51  1  0
 40 41  1  0
 40 42  1  0
 40 43  1  0
 43 44  1  0
 43 45  1  0
 43 46  1  0
 46 47  1  0
 46 48  1  0
 48 49  1  0
 48 50  1  0
 48 51  1  0
 51 52  1  0
 51 53  1  0
M  CHG  1  19   1
M  END
>  <r_exp_dg>  (19) 
-8.997

>  <experimental dG reference units>  (19) 
kcal/mol

>  <experimental dG reference field>  (19) 
r_exp_dg

>  <kJ/mol experimental dG>  (19) 
-37.643448

>  <kcal/mol experimental dG>  (19) 
-8.997

$$$$
29
     RDKit          3D

 50 52  0  0  1  0  0  0  0  0999 V2000
   26.9470   15.3250    9.1860 C   0  0  0  0  0  0  0  0  0  0  0  0
   27.6320   14.0950    9.0140 C   0  0  0  0  0  0  0  0  0  0  0  0
   28.7000   14.0480    9.1690 H   0  0  0  0  0  0  0  0  0  0  0  0
   26.9220   12.9310    8.6410 C   0  0  0  0  0  0  0  0  0  0  0  0
   27.4460   11.9960    8.5080 H   0  0  0  0  0  0  0  0  0  0  0  0
   25.5210   12.9940    8.4420 C   0  0  0  0  0  0  0  0  0  0  0  0
   24.8260   14.2190    8.6190 C   0  0  0  0  0  0  0  0  0  0  0  0
   25.5440   15.3800    8.9820 C   0  0  0  0  0  0  0  0  0  0  0  0
   25.0210   16.3170    9.1050 H   0  0  0  0  0  0  0  0  0  0  0  0
   24.8500   11.8510    8.0940 O   0  0  0  0  0  0  0  0  0  0  0  0
   23.4360   11.7100    8.2520 C   0  0  0  0  0  0  0  0  0  0  0  0
   22.7180   13.0050    7.7980 C   0  0  0  0  0  0  0  0  0  0  0  0
   21.6740   12.9400    8.1030 H   0  0  0  0  0  0  0  0  0  0  0  0
   22.7760   13.0630    6.7110 H   0  0  0  0  0  0  0  0  0  0  0  0
   23.3110   14.3040    8.3820 C   0  0  2  0  0  0  0  0  0  0  0  0
   23.0360   15.4900    7.4390 C   0  0  0  0  0  0  0  0  0  0  0  0
   22.3290   16.4140    8.1240 N   0  0  0  0  0  0  0  0  0  0  0  0
   22.0880   15.9170    9.3720 C   0  0  0  0  0  0  0  0  0  0  0  0
   22.5740   14.7390    9.5680 N   0  0  0  0  0  0  0  0  0  0  0  0
   22.4630   14.1980   10.4140 H   0  0  0  0  0  0  0  0  0  0  0  0
   21.9330   17.7200    7.5940 C   0  0  0  0  0  0  0  0  0  0  0  0
   22.2760   17.8130    6.5640 H   0  0  0  0  0  0  0  0  0  0  0  0
   22.3810   18.5090    8.1990 H   0  0  0  0  0  0  0  0  0  0  0  0
   20.8470   17.8110    7.6250 H   0  0  0  0  0  0  0  0  0  0  0  0
   21.3210   16.6530   10.2630 N   0  0  0  0  0  0  0  0  0  0  0  0
   21.0940   16.2700   11.1700 H   0  0  0  0  0  0  0  0  0  0  0  0
   20.9900   17.5720   10.0050 H   0  0  0  0  0  0  0  0  0  0  0  0
   23.5150   15.6060    6.3060 O   0  0  0  0  0  0  0  0  0  0  0  0
   23.0150   10.5220    7.3590 C   0  0  0  0  0  0  0  0  0  0  0  0
   23.2670   10.7410    6.3210 H   0  0  0  0  0  0  0  0  0  0  0  0
   21.9400   10.3650    7.4470 H   0  0  0  0  0  0  0  0  0  0  0  0
   23.5410    9.6230    7.6790 H   0  0  0  0  0  0  0  0  0  0  0  0
   23.0750   11.3910    9.7230 C   0  0  0  0  0  0  0  0  0  0  0  0
   23.3700   12.2260   10.3590 H   0  0  0  0  0  0  0  0  0  0  0  0
   23.6010   10.4900   10.0390 H   0  0  0  0  0  0  0  0  0  0  0  0
   22.0000   11.2320    9.8070 H   0  0  0  0  0  0  0  0  0  0  0  0
   27.6130   16.4610    9.5250 O   0  0  0  0  0  0  0  0  0  0  0  0
   28.3790   16.9310    8.4150 C   0  0  0  0  0  0  0  0  0  0  0  0
   29.0720   18.1230    8.7850 C   0  0  0  0  0  0  0  0  0  0  0  0
   28.1270   19.1230    9.1680 C   0  0  0  0  0  0  0  0  0  0  0  0
   27.4620   19.3350    8.3310 H   0  0  0  0  0  0  0  0  0  0  0  0
   28.6560   20.0330    9.4510 H   0  0  0  0  0  0  0  0  0  0  0  0
   27.5420   18.7650   10.0150 H   0  0  0  0  0  0  0  0  0  0  0  0
   29.8380   18.5930    7.6750 C   0  0  0  0  0  0  0  0  0  0  0  0
   29.1730   18.8040    6.8380 H   0  0  0  0  0  0  0  0  0  0  0  0
   30.5590   17.8290    7.3830 H   0  0  0  0  0  0  0  0  0  0  0  0
   30.3670   19.5030    7.9580 H   0  0  0  0  0  0  0  0  0  0  0  0
   29.7370   17.9120    9.6220 H   0  0  0  0  0  0  0  0  0  0  0  0
   27.7140   17.1420    7.5780 H   0  0  0  0  0  0  0  0  0  0  0  0
   29.1000   16.1670    8.1220 H   0  0  0  0  0  0  0  0  0  0  0  0
  1  2  2  0
  1  8  1  0
  1 37  1  0
  2  3  1  0
  2  4  1  0
  4  5  1  0
  4  6  2  0
  6  7  1  0
  6 10  1  0
  7  8  2  0
  7 15  1  0
  8  9  1  0
 10 11  1  0
 11 12  1  0
 11 29  1  0
 11 33  1  0
 12 13  1  0
 12 14  1  0
 15 12  1  6
 15 16  1  0
 15 19  1  0
 16 17  1  0
 16 28  2  0
 17 18  1  0
 17 21  1  0
 18 19  2  0
 18 25  1  0
 19 20  1  0
 21 22  1  0
 21 23  1  0
 21 24  1  0
 25 26  1  0
 25 27  1  0
 29 30  1  0
 29 31  1  0
 29 32  1  0
 33 34  1  0
 33 35  1  0
 33 36  1  0
 37 38  1  0
 38 39  1  0
 38 49  1  0
 38 50  1  0
 39 40  1  0
 39 44  1  0
 39 48  1  0
 40 41  1  0
 40 42  1  0
 40 43  1  0
 44 45  1  0
 44 46  1  0
 44 47  1  0
M  CHG  1  19   1
M  END
>  <r_exp_dg>  (20) 
-8.73567

>  <experimental dG reference units>  (20) 
kcal/mol

>  <experimental dG reference field>  (20) 
r_exp_dg

>  <kJ/mol experimental dG>  (20) 
-36.550043280000004

>  <kcal/mol experimental dG>  (20) 
-8.73567

$$$$
30
     RDKit          3D

 52 55  0  0  1  0  0  0  0  0999 V2000
   26.9470   15.3250    9.1860 C   0  0  0  0  0  0  0  0  0  0  0  0
   27.6320   14.0950    9.0140 C   0  0  0  0  0  0  0  0  0  0  0  0
   28.7000   14.0480    9.1690 H   0  0  0  0  0  0  0  0  0  0  0  0
   26.9220   12.9310    8.6410 C   0  0  0  0  0  0  0  0  0  0  0  0
   27.4460   11.9960    8.5080 H   0  0  0  0  0  0  0  0  0  0  0  0
   25.5210   12.9940    8.4420 C   0  0  0  0  0  0  0  0  0  0  0  0
   24.8260   14.2190    8.6190 C   0  0  0  0  0  0  0  0  0  0  0  0
   25.5440   15.3800    8.9820 C   0  0  0  0  0  0  0  0  0  0  0  0
   25.0210   16.3170    9.1050 H   0  0  0  0  0  0  0  0  0  0  0  0
   24.8500   11.8510    8.0940 O   0  0  0  0  0  0  0  0  0  0  0  0
   23.4360   11.7100    8.2520 C   0  0  0  0  0  0  0  0  0  0  0  0
   22.7180   13.0050    7.7980 C   0  0  0  0  0  0  0  0  0  0  0  0
   21.6740   12.9400    8.1030 H   0  0  0  0  0  0  0  0  0  0  0  0
   22.7760   13.0630    6.7110 H   0  0  0  0  0  0  0  0  0  0  0  0
   23.3110   14.3040    8.3820 C   0  0  2  0  0  0  0  0  0  0  0  0
   23.0360   15.4900    7.4390 C   0  0  0  0  0  0  0  0  0  0  0  0
   22.3290   16.4140    8.1240 N   0  0  0  0  0  0  0  0  0  0  0  0
   22.0880   15.9170    9.3720 C   0  0  0  0  0  0  0  0  0  0  0  0
   22.5740   14.7390    9.5680 N   0  0  0  0  0  0  0  0  0  0  0  0
   22.4630   14.1980   10.4140 H   0  0  0  0  0  0  0  0  0  0  0  0
   21.9330   17.7200    7.5940 C   0  0  0  0  0  0  0  0  0  0  0  0
   22.2760   17.8130    6.5640 H   0  0  0  0  0  0  0  0  0  0  0  0
   22.3810   18.5090    8.1990 H   0  0  0  0  0  0  0  0  0  0  0  0
   20.8470   17.8110    7.6250 H   0  0  0  0  0  0  0  0  0  0  0  0
   21.3210   16.6530   10.2630 N   0  0  0  0  0  0  0  0  0  0  0  0
   21.0940   16.2700   11.1700 H   0  0  0  0  0  0  0  0  0  0  0  0
   20.9900   17.5720   10.0050 H   0  0  0  0  0  0  0  0  0  0  0  0
   23.5150   15.6060    6.3060 O   0  0  0  0  0  0  0  0  0  0  0  0
   23.0150   10.5220    7.3590 C   0  0  0  0  0  0  0  0  0  0  0  0
   23.2670   10.7410    6.3210 H   0  0  0  0  0  0  0  0  0  0  0  0
   21.9400   10.3650    7.4470 H   0  0  0  0  0  0  0  0  0  0  0  0
   23.5410    9.6230    7.6790 H   0  0  0  0  0  0  0  0  0  0  0  0
   23.0750   11.3910    9.7230 C   0  0  0  0  0  0  0  0  0  0  0  0
   23.3700   12.2260   10.3590 H   0  0  0  0  0  0  0  0  0  0  0  0
   23.6010   10.4900   10.0390 H   0  0  0  0  0  0  0  0  0  0  0  0
   22.0000   11.2320    9.8070 H   0  0  0  0  0  0  0  0  0  0  0  0
   28.9310   18.1330   11.5680 C   0  0  0  0  0  0  0  0  0  0  0  0
   29.4680   19.0480   11.8410 H   0  0  0  0  0  0  0  0  0  0  0  0
   28.8240   17.5400   12.4850 H   0  0  0  0  0  0  0  0  0  0  0  0
   29.7470   17.3440   10.5470 C   0  0  0  0  0  0  0  0  0  0  0  0
   30.7030   17.0450   10.9900 H   0  0  0  0  0  0  0  0  0  0  0  0
   29.9780   17.9880    9.6900 H   0  0  0  0  0  0  0  0  0  0  0  0
   28.9960   16.1060   10.0620 C   0  0  0  0  0  0  0  0  0  0  0  0
   28.8920   15.3950   10.8920 H   0  0  0  0  0  0  0  0  0  0  0  0
   29.5780   15.6040    9.2810 H   0  0  0  0  0  0  0  0  0  0  0  0
   27.6130   16.4610    9.5250 N   0  0  0  0  0  0  0  0  0  0  0  0
   26.7980   17.2500   10.5450 C   0  0  0  0  0  0  0  0  0  0  0  0
   26.5660   16.6060   11.4030 H   0  0  0  0  0  0  0  0  0  0  0  0
   25.8410   17.5490   10.1020 H   0  0  0  0  0  0  0  0  0  0  0  0
   27.5480   18.4880   11.0300 C   0  0  0  0  0  0  0  0  0  0  0  0
   26.9660   18.9900   11.8120 H   0  0  0  0  0  0  0  0  0  0  0  0
   27.6520   19.1990   10.2010 H   0  0  0  0  0  0  0  0  0  0  0  0
  1  2  2  0
  1  8  1  0
  1 46  1  0
  2  3  1  0
  2  4  1  0
  4  5  1  0
  4  6  2  0
  6  7  1  0
  6 10  1  0
  7  8  2  0
  7 15  1  0
  8  9  1  0
 10 11  1  0
 11 12  1  0
 11 29  1  0
 11 33  1  0
 12 13  1  0
 12 14  1  0
 15 12  1  6
 15 16  1  0
 15 19  1  0
 16 17  1  0
 16 28  2  0
 17 18  1  0
 17 21  1  0
 18 19  2  0
 18 25  1  0
 19 20  1  0
 21 22  1  0
 21 23  1  0
 21 24  1  0
 25 26  1  0
 25 27  1  0
 29 30  1  0
 29 31  1  0
 29 32  1  0
 33 34  1  0
 33 35  1  0
 33 36  1  0
 37 38  1  0
 37 39  1  0
 37 40  1  0
 37 50  1  0
 40 41  1  0
 40 42  1  0
 40 43  1  0
 43 44  1  0
 43 45  1  0
 43 46  1  0
 46 47  1  0
 47 48  1  0
 47 49  1  0
 47 50  1  0
 50 51  1  0
 50 52  1  0
M  CHG  1  19   1
M  END
>  <r_exp_dg>  (21) 
-6.94738

>  <experimental dG reference units>  (21) 
kcal/mol

>  <experimental dG reference field>  (21) 
r_exp_dg

>  <kJ/mol experimental dG>  (21) 
-29.067837920000002

>  <kcal/mol experimental dG>  (21) 
-6.94738

$$$$
31
     RDKit          3D

 46 49  0  0  1  0  0  0  0  0999 V2000
   26.9470   15.3250    9.1860 C   0  0  0  0  0  0  0  0  0  0  0  0
   27.6320   14.0950    9.0140 C   0  0  0  0  0  0  0  0  0  0  0  0
   28.7000   14.0480    9.1690 H   0  0  0  0  0  0  0  0  0  0  0  0
   26.9220   12.9310    8.6410 C   0  0  0  0  0  0  0  0  0  0  0  0
   27.4460   11.9960    8.5080 H   0  0  0  0  0  0  0  0  0  0  0  0
   25.5210   12.9940    8.4420 C   0  0  0  0  0  0  0  0  0  0  0  0
   24.8260   14.2190    8.6190 C   0  0  0  0  0  0  0  0  0  0  0  0
   25.5440   15.3800    8.9820 C   0  0  0  0  0  0  0  0  0  0  0  0
   25.0210   16.3170    9.1050 H   0  0  0  0  0  0  0  0  0  0  0  0
   24.8500   11.8510    8.0940 O   0  0  0  0  0  0  0  0  0  0  0  0
   23.4360   11.7100    8.2520 C   0  0  0  0  0  0  0  0  0  0  0  0
   22.7180   13.0050    7.7980 C   0  0  0  0  0  0  0  0  0  0  0  0
   21.6740   12.9400    8.1030 H   0  0  0  0  0  0  0  0  0  0  0  0
   22.7760   13.0630    6.7110 H   0  0  0  0  0  0  0  0  0  0  0  0
   23.3110   14.3040    8.3820 C   0  0  2  0  0  0  0  0  0  0  0  0
   23.0360   15.4900    7.4390 C   0  0  0  0  0  0  0  0  0  0  0  0
   22.3290   16.4140    8.1240 N   0  0  0  0  0  0  0  0  0  0  0  0
   22.0880   15.9170    9.3720 C   0  0  0  0  0  0  0  0  0  0  0  0
   22.5740   14.7390    9.5680 N   0  0  0  0  0  0  0  0  0  0  0  0
   22.4630   14.1980   10.4140 H   0  0  0  0  0  0  0  0  0  0  0  0
   27.6390   16.5060    9.5380 C   0  0  0  0  0  0  0  0  0  0  0  0
   21.9330   17.7200    7.5940 C   0  0  0  0  0  0  0  0  0  0  0  0
   22.2760   17.8130    6.5640 H   0  0  0  0  0  0  0  0  0  0  0  0
   22.3810   18.5090    8.1990 H   0  0  0  0  0  0  0  0  0  0  0  0
   20.8470   17.8110    7.6250 H   0  0  0  0  0  0  0  0  0  0  0  0
   21.3210   16.6530   10.2630 N   0  0  0  0  0  0  0  0  0  0  0  0
   21.0940   16.2700   11.1700 H   0  0  0  0  0  0  0  0  0  0  0  0
   20.9900   17.5720   10.0050 H   0  0  0  0  0  0  0  0  0  0  0  0
   27.0450   17.4570   10.4030 C   0  0  0  0  0  0  0  0  0  0  0  0
   26.0630   17.2760   10.8140 H   0  0  0  0  0  0  0  0  0  0  0  0
   27.7420   18.6460   10.7270 C   0  0  0  0  0  0  0  0  0  0  0  0
   27.2890   19.3670   11.3910 H   0  0  0  0  0  0  0  0  0  0  0  0
   29.0290   18.9000   10.1880 C   0  0  0  0  0  0  0  0  0  0  0  0
   29.5540   19.8090   10.4410 H   0  0  0  0  0  0  0  0  0  0  0  0
   29.6220   17.9540    9.3150 N   0  0  0  0  0  0  0  0  0  0  0  0
   28.9240   16.7660    8.9880 C   0  0  0  0  0  0  0  0  0  0  0  0
   29.3720   16.0510    8.3140 H   0  0  0  0  0  0  0  0  0  0  0  0
   23.5150   15.6060    6.3060 O   0  0  0  0  0  0  0  0  0  0  0  0
   23.0150   10.5220    7.3590 C   0  0  0  0  0  0  0  0  0  0  0  0
   23.2670   10.7410    6.3210 H   0  0  0  0  0  0  0  0  0  0  0  0
   21.9400   10.3650    7.4470 H   0  0  0  0  0  0  0  0  0  0  0  0
   23.5410    9.6230    7.6790 H   0  0  0  0  0  0  0  0  0  0  0  0
   23.0750   11.3910    9.7230 C   0  0  0  0  0  0  0  0  0  0  0  0
   23.3700   12.2260   10.3590 H   0  0  0  0  0  0  0  0  0  0  0  0
   23.6010   10.4900   10.0390 H   0  0  0  0  0  0  0  0  0  0  0  0
   22.0000   11.2320    9.8070 H   0  0  0  0  0  0  0  0  0  0  0  0
  1  2  2  0
  1  8  1  0
  1 21  1  0
  2  3  1  0
  2  4  1  0
  4  5  1  0
  4  6  2  0
  6  7  1  0
  6 10  1  0
  7  8  2  0
  7 15  1  0
  8  9  1  0
 10 11  1  0
 11 12  1  0
 11 39  1  0
 11 43  1  0
 12 13  1  0
 12 14  1  0
 15 12  1  6
 15 16  1  0
 15 19  1  0
 16 17  1  0
 16 38  2  0
 17 18  1  0
 17 22  1  0
 18 19  2  0
 18 26  1  0
 19 20  1  0
 21 29  2  0
 21 36  1  0
 22 23  1  0
 22 24  1  0
 22 25  1  0
 26 27  1  0
 26 28  1  0
 29 30  1  0
 29 31  1  0
 31 32  1  0
 31 33  2  0
 33 34  1  0
 33 35  1  0
 35 36  2  0
 36 37  1  0
 39 40  1  0
 39 41  1  0
 39 42  1  0
 43 44  1  0
 43 45  1  0
 43 46  1  0
M  CHG  1  19   1
M  END
>  <r_exp_dg>  (22) 
-9.53354

>  <experimental dG reference units>  (22) 
kcal/mol

>  <experimental dG reference field>  (22) 
r_exp_dg

>  <kJ/mol experimental dG>  (22) 
-39.88833136

>  <kcal/mol experimental dG>  (22) 
-9.53354

$$$$
32
     RDKit          3D

 46 49  0  0  1  0  0  0  0  0999 V2000
   26.9470   15.3250    9.1860 C   0  0  0  0  0  0  0  0  0  0  0  0
   27.6320   14.0950    9.0140 C   0  0  0  0  0  0  0  0  0  0  0  0
   28.7000   14.0480    9.1690 H   0  0  0  0  0  0  0  0  0  0  0  0
   26.9220   12.9310    8.6410 C   0  0  0  0  0  0  0  0  0  0  0  0
   27.4460   11.9960    8.5080 H   0  0  0  0  0  0  0  0  0  0  0  0
   25.5210   12.9940    8.4420 C   0  0  0  0  0  0  0  0  0  0  0  0
   24.8260   14.2190    8.6190 C   0  0  0  0  0  0  0  0  0  0  0  0
   25.5440   15.3800    8.9820 C   0  0  0  0  0  0  0  0  0  0  0  0
   25.0210   16.3170    9.1050 H   0  0  0  0  0  0  0  0  0  0  0  0
   24.8500   11.8510    8.0940 O   0  0  0  0  0  0  0  0  0  0  0  0
   23.4360   11.7100    8.2520 C   0  0  0  0  0  0  0  0  0  0  0  0
   22.7180   13.0050    7.7980 C   0  0  0  0  0  0  0  0  0  0  0  0
   21.6740   12.9400    8.1030 H   0  0  0  0  0  0  0  0  0  0  0  0
   22.7760   13.0630    6.7110 H   0  0  0  0  0  0  0  0  0  0  0  0
   23.3110   14.3040    8.3820 C   0  0  2  0  0  0  0  0  0  0  0  0
   23.0360   15.4900    7.4390 C   0  0  0  0  0  0  0  0  0  0  0  0
   22.3290   16.4140    8.1240 N   0  0  0  0  0  0  0  0  0  0  0  0
   22.0880   15.9170    9.3720 C   0  0  0  0  0  0  0  0  0  0  0  0
   22.5740   14.7390    9.5680 N   0  0  0  0  0  0  0  0  0  0  0  0
   22.4630   14.1980   10.4140 H   0  0  0  0  0  0  0  0  0  0  0  0
   27.6390   16.5060    9.5380 C   0  0  0  0  0  0  0  0  0  0  0  0
   21.9330   17.7200    7.5940 C   0  0  0  0  0  0  0  0  0  0  0  0
   22.2760   17.8130    6.5640 H   0  0  0  0  0  0  0  0  0  0  0  0
   22.3810   18.5090    8.1990 H   0  0  0  0  0  0  0  0  0  0  0  0
   20.8470   17.8110    7.6250 H   0  0  0  0  0  0  0  0  0  0  0  0
   21.3210   16.6530   10.2630 N   0  0  0  0  0  0  0  0  0  0  0  0
   21.0940   16.2700   11.1700 H   0  0  0  0  0  0  0  0  0  0  0  0
   20.9900   17.5720   10.0050 H   0  0  0  0  0  0  0  0  0  0  0  0
   27.0450   17.4570   10.4030 C   0  0  0  0  0  0  0  0  0  0  0  0
   26.0630   17.2760   10.8140 H   0  0  0  0  0  0  0  0  0  0  0  0
   27.7420   18.6460   10.7270 C   0  0  0  0  0  0  0  0  0  0  0  0
   27.2890   19.3670   11.3910 H   0  0  0  0  0  0  0  0  0  0  0  0
   29.0290   18.9000   10.1880 C   0  0  0  0  0  0  0  0  0  0  0  0
   29.5540   19.8090   10.4410 H   0  0  0  0  0  0  0  0  0  0  0  0
   29.6220   17.9540    9.3150 C   0  0  0  0  0  0  0  0  0  0  0  0
   30.6020   18.1380    8.9010 H   0  0  0  0  0  0  0  0  0  0  0  0
   28.9240   16.7660    8.9880 N   0  0  0  0  0  0  0  0  0  0  0  0
   23.5150   15.6060    6.3060 O   0  0  0  0  0  0  0  0  0  0  0  0
   23.0150   10.5220    7.3590 C   0  0  0  0  0  0  0  0  0  0  0  0
   23.2670   10.7410    6.3210 H   0  0  0  0  0  0  0  0  0  0  0  0
   21.9400   10.3650    7.4470 H   0  0  0  0  0  0  0  0  0  0  0  0
   23.5410    9.6230    7.6790 H   0  0  0  0  0  0  0  0  0  0  0  0
   23.0750   11.3910    9.7230 C   0  0  0  0  0  0  0  0  0  0  0  0
   23.3700   12.2260   10.3590 H   0  0  0  0  0  0  0  0  0  0  0  0
   23.6010   10.4900   10.0390 H   0  0  0  0  0  0  0  0  0  0  0  0
   22.0000   11.2320    9.8070 H   0  0  0  0  0  0  0  0  0  0  0  0
  1  2  2  0
  1  8  1  0
  1 21  1  0
  2  3  1  0
  2  4  1  0
  4  5  1  0
  4  6  2  0
  6  7  1  0
  6 10  1  0
  7  8  2  0
  7 15  1  0
  8  9  1  0
 10 11  1  0
 11 12  1  0
 11 39  1  0
 11 43  1  0
 12 13  1  0
 12 14  1  0
 15 12  1  6
 15 16  1  0
 15 19  1  0
 16 17  1  0
 16 38  2  0
 17 18  1  0
 17 22  1  0
 18 19  2  0
 18 26  1  0
 19 20  1  0
 21 29  2  0
 21 37  1  0
 22 23  1  0
 22 24  1  0
 22 25  1  0
 26 27  1  0
 26 28  1  0
 29 30  1  0
 29 31  1  0
 31 32  1  0
 31 33  2  0
 33 34  1  0
 33 35  1  0
 35 36  1  0
 35 37  2  0
 39 40  1  0
 39 41  1  0
 39 42  1  0
 43 44  1  0
 43 45  1  0
 43 46  1  0
M  CHG  1  19   1
M  END
>  <r_exp_dg>  (23) 
-7.72152

>  <experimental dG reference units>  (23) 
kcal/mol

>  <experimental dG reference field>  (23) 
r_exp_dg

>  <kJ/mol experimental dG>  (23) 
-32.30683968

>  <kcal/mol experimental dG>  (23) 
-7.721520000000001

$$$$
33
     RDKit          3D

 46 49  0  0  1  0  0  0  0  0999 V2000
   26.9470   15.3250    9.1860 C   0  0  0  0  0  0  0  0  0  0  0  0
   27.6320   14.0950    9.0140 C   0  0  0  0  0  0  0  0  0  0  0  0
   28.7000   14.0480    9.1690 H   0  0  0  0  0  0  0  0  0  0  0  0
   26.9220   12.9310    8.6410 C   0  0  0  0  0  0  0  0  0  0  0  0
   27.4460   11.9960    8.5080 H   0  0  0  0  0  0  0  0  0  0  0  0
   25.5210   12.9940    8.4420 C   0  0  0  0  0  0  0  0  0  0  0  0
   24.8260   14.2190    8.6190 C   0  0  0  0  0  0  0  0  0  0  0  0
   25.5440   15.3800    8.9820 C   0  0  0  0  0  0  0  0  0  0  0  0
   25.0210   16.3170    9.1050 H   0  0  0  0  0  0  0  0  0  0  0  0
   24.8500   11.8510    8.0940 O   0  0  0  0  0  0  0  0  0  0  0  0
   23.4360   11.7100    8.2520 C   0  0  0  0  0  0  0  0  0  0  0  0
   22.7180   13.0050    7.7980 C   0  0  0  0  0  0  0  0  0  0  0  0
   21.6740   12.9400    8.1030 H   0  0  0  0  0  0  0  0  0  0  0  0
   22.7760   13.0630    6.7110 H   0  0  0  0  0  0  0  0  0  0  0  0
   23.3110   14.3040    8.3820 C   0  0  2  0  0  0  0  0  0  0  0  0
   23.0360   15.4900    7.4390 C   0  0  0  0  0  0  0  0  0  0  0  0
   22.3290   16.4140    8.1240 N   0  0  0  0  0  0  0  0  0  0  0  0
   22.0880   15.9170    9.3720 C   0  0  0  0  0  0  0  0  0  0  0  0
   22.5740   14.7390    9.5680 N   0  0  0  0  0  0  0  0  0  0  0  0
   22.4630   14.1980   10.4140 H   0  0  0  0  0  0  0  0  0  0  0  0
   27.6390   16.5060    9.5380 C   0  0  0  0  0  0  0  0  0  0  0  0
   21.9330   17.7200    7.5940 C   0  0  0  0  0  0  0  0  0  0  0  0
   22.2760   17.8130    6.5640 H   0  0  0  0  0  0  0  0  0  0  0  0
   22.3810   18.5090    8.1990 H   0  0  0  0  0  0  0  0  0  0  0  0
   20.8470   17.8110    7.6250 H   0  0  0  0  0  0  0  0  0  0  0  0
   21.3210   16.6530   10.2630 N   0  0  0  0  0  0  0  0  0  0  0  0
   21.0940   16.2700   11.1700 H   0  0  0  0  0  0  0  0  0  0  0  0
   20.9900   17.5720   10.0050 H   0  0  0  0  0  0  0  0  0  0  0  0
   27.0450   17.4570   10.4030 C   0  0  0  0  0  0  0  0  0  0  0  0
   26.0630   17.2760   10.8140 H   0  0  0  0  0  0  0  0  0  0  0  0
   27.7420   18.6460   10.7270 C   0  0  0  0  0  0  0  0  0  0  0  0
   27.2890   19.3670   11.3910 H   0  0  0  0  0  0  0  0  0  0  0  0
   29.0290   18.9000   10.1880 N   0  0  0  0  0  0  0  0  0  0  0  0
   29.6220   17.9540    9.3150 C   0  0  0  0  0  0  0  0  0  0  0  0
   30.6020   18.1380    8.9010 H   0  0  0  0  0  0  0  0  0  0  0  0
   28.9240   16.7660    8.9880 C   0  0  0  0  0  0  0  0  0  0  0  0
   29.3720   16.0510    8.3140 H   0  0  0  0  0  0  0  0  0  0  0  0
   23.5150   15.6060    6.3060 O   0  0  0  0  0  0  0  0  0  0  0  0
   23.0150   10.5220    7.3590 C   0  0  0  0  0  0  0  0  0  0  0  0
   23.2670   10.7410    6.3210 H   0  0  0  0  0  0  0  0  0  0  0  0
   21.9400   10.3650    7.4470 H   0  0  0  0  0  0  0  0  0  0  0  0
   23.5410    9.6230    7.6790 H   0  0  0  0  0  0  0  0  0  0  0  0
   23.0750   11.3910    9.7230 C   0  0  0  0  0  0  0  0  0  0  0  0
   23.3700   12.2260   10.3590 H   0  0  0  0  0  0  0  0  0  0  0  0
   23.6010   10.4900   10.0390 H   0  0  0  0  0  0  0  0  0  0  0  0
   22.0000   11.2320    9.8070 H   0  0  0  0  0  0  0  0  0  0  0  0
  1  2  2  0
  1  8  1  0
  1 21  1  0
  2  3  1  0
  2  4  1  0
  4  5  1  0
  4  6  2  0
  6  7  1  0
  6 10  1  0
  7  8  2  0
  7 15  1  0
  8  9  1  0
 10 11  1  0
 11 12  1  0
 11 39  1  0
 11 43  1  0
 12 13  1  0
 12 14  1  0
 15 12  1  6
 15 16  1  0
 15 19  1  0
 16 17  1  0
 16 38  2  0
 17 18  1  0
 17 22  1  0
 18 19  2  0
 18 26  1  0
 19 20  1  0
 21 29  2  0
 21 36  1  0
 22 23  1  0
 22 24  1  0
 22 25  1  0
 26 27  1  0
 26 28  1  0
 29 30  1  0
 29 31  1  0
 31 32  1  0
 31 33  2  0
 33 34  1  0
 34 35  1  0
 34 36  2  0
 36 37  1  0
 39 40  1  0
 39 41  1  0
 39 42  1  0
 43 44  1  0
 43 45  1  0
 43 46  1  0
M  CHG  1  19   1
M  END
>  <r_exp_dg>  (24) 
-7.13992

>  <experimental dG reference units>  (24) 
kcal/mol

>  <experimental dG reference field>  (24) 
r_exp_dg

>  <kJ/mol experimental dG>  (24) 
-29.873425280000003

>  <kcal/mol experimental dG>  (24) 
-7.13992

$$$$
34
     RDKit          3D

 46 49  0  0  1  0  0  0  0  0999 V2000
   26.9470   15.3250    9.1860 C   0  0  0  0  0  0  0  0  0  0  0  0
   27.6320   14.0950    9.0140 C   0  0  0  0  0  0  0  0  0  0  0  0
   28.7000   14.0480    9.1690 H   0  0  0  0  0  0  0  0  0  0  0  0
   26.9220   12.9310    8.6410 C   0  0  0  0  0  0  0  0  0  0  0  0
   27.4460   11.9960    8.5080 H   0  0  0  0  0  0  0  0  0  0  0  0
   25.5210   12.9940    8.4420 C   0  0  0  0  0  0  0  0  0  0  0  0
   24.8260   14.2190    8.6190 C   0  0  0  0  0  0  0  0  0  0  0  0
   25.5440   15.3800    8.9820 C   0  0  0  0  0  0  0  0  0  0  0  0
   25.0210   16.3170    9.1050 H   0  0  0  0  0  0  0  0  0  0  0  0
   24.8500   11.8510    8.0940 O   0  0  0  0  0  0  0  0  0  0  0  0
   23.4360   11.7100    8.2520 C   0  0  0  0  0  0  0  0  0  0  0  0
   22.7180   13.0050    7.7980 C   0  0  0  0  0  0  0  0  0  0  0  0
   21.6740   12.9400    8.1030 H   0  0  0  0  0  0  0  0  0  0  0  0
   22.7760   13.0630    6.7110 H   0  0  0  0  0  0  0  0  0  0  0  0
   23.3110   14.3040    8.3820 C   0  0  2  0  0  0  0  0  0  0  0  0
   23.0360   15.4900    7.4390 C   0  0  0  0  0  0  0  0  0  0  0  0
   22.3290   16.4140    8.1240 N   0  0  0  0  0  0  0  0  0  0  0  0
   22.0880   15.9170    9.3720 C   0  0  0  0  0  0  0  0  0  0  0  0
   22.5740   14.7390    9.5680 N   0  0  0  0  0  0  0  0  0  0  0  0
   22.4630   14.1980   10.4140 H   0  0  0  0  0  0  0  0  0  0  0  0
   27.6390   16.5060    9.5380 C   0  0  0  0  0  0  0  0  0  0  0  0
   21.9330   17.7200    7.5940 C   0  0  0  0  0  0  0  0  0  0  0  0
   22.2760   17.8130    6.5640 H   0  0  0  0  0  0  0  0  0  0  0  0
   22.3810   18.5090    8.1990 H   0  0  0  0  0  0  0  0  0  0  0  0
   20.8470   17.8110    7.6250 H   0  0  0  0  0  0  0  0  0  0  0  0
   21.3210   16.6530   10.2630 N   0  0  0  0  0  0  0  0  0  0  0  0
   21.0940   16.2700   11.1700 H   0  0  0  0  0  0  0  0  0  0  0  0
   20.9900   17.5720   10.0050 H   0  0  0  0  0  0  0  0  0  0  0  0
   27.0450   17.4570   10.4030 C   0  0  0  0  0  0  0  0  0  0  0  0
   26.0630   17.2760   10.8140 H   0  0  0  0  0  0  0  0  0  0  0  0
   27.7420   18.6460   10.7270 C   0  0  0  0  0  0  0  0  0  0  0  0
   27.0060   19.8170   11.8050 Cl  0  0  0  0  0  0  0  0  0  0  0  0
   29.0290   18.9000   10.1880 C   0  0  0  0  0  0  0  0  0  0  0  0
   29.5540   19.8090   10.4410 H   0  0  0  0  0  0  0  0  0  0  0  0
   29.6220   17.9540    9.3150 N   0  0  0  0  0  0  0  0  0  0  0  0
   28.9240   16.7660    8.9880 C   0  0  0  0  0  0  0  0  0  0  0  0
   29.3720   16.0510    8.3140 H   0  0  0  0  0  0  0  0  0  0  0  0
   23.5150   15.6060    6.3060 O   0  0  0  0  0  0  0  0  0  0  0  0
   23.0150   10.5220    7.3590 C   0  0  0  0  0  0  0  0  0  0  0  0
   23.2670   10.7410    6.3210 H   0  0  0  0  0  0  0  0  0  0  0  0
   21.9400   10.3650    7.4470 H   0  0  0  0  0  0  0  0  0  0  0  0
   23.5410    9.6230    7.6790 H   0  0  0  0  0  0  0  0  0  0  0  0
   23.0750   11.3910    9.7230 C   0  0  0  0  0  0  0  0  0  0  0  0
   23.3700   12.2260   10.3590 H   0  0  0  0  0  0  0  0  0  0  0  0
   23.6010   10.4900   10.0390 H   0  0  0  0  0  0  0  0  0  0  0  0
   22.0000   11.2320    9.8070 H   0  0  0  0  0  0  0  0  0  0  0  0
  1  2  2  0
  1  8  1  0
  1 21  1  0
  2  3  1  0
  2  4  1  0
  4  5  1  0
  4  6  2  0
  6  7  1  0
  6 10  1  0
  7  8  2  0
  7 15  1  0
  8  9  1  0
 10 11  1  0
 11 12  1  0
 11 39  1  0
 11 43  1  0
 12 13  1  0
 12 14  1  0
 15 12  1  6
 15 16  1  0
 15 19  1  0
 16 17  1  0
 16 38  2  0
 17 18  1  0
 17 22  1  0
 18 19  2  0
 18 26  1  0
 19 20  1  0
 21 29  2  0
 21 36  1  0
 22 23  1  0
 22 24  1  0
 22 25  1  0
 26 27  1  0
 26 28  1  0
 29 30  1  0
 29 31  1  0
 31 32  1  0
 31 33  2  0
 33 34  1  0
 33 35  1  0
 35 36  2  0
 36 37  1  0
 39 40  1  0
 39 41  1  0
 39 42  1  0
 43 44  1  0
 43 45  1  0
 43 46  1  0
M  CHG  1  19   1
M  END
>  <r_exp_dg>  (25) 
-10.2494

>  <experimental dG reference units>  (25) 
kcal/mol

>  <experimental dG reference field>  (25) 
r_exp_dg

>  <kJ/mol experimental dG>  (25) 
-42.8834896

>  <kcal/mol experimental dG>  (25) 
-10.2494

$$$$
35
     RDKit          3D

 49 52  0  0  1  0  0  0  0  0999 V2000
   26.9470   15.3250    9.1860 C   0  0  0  0  0  0  0  0  0  0  0  0
   27.6320   14.0950    9.0140 C   0  0  0  0  0  0  0  0  0  0  0  0
   28.7000   14.0480    9.1690 H   0  0  0  0  0  0  0  0  0  0  0  0
   26.9220   12.9310    8.6410 C   0  0  0  0  0  0  0  0  0  0  0  0
   27.4460   11.9960    8.5080 H   0  0  0  0  0  0  0  0  0  0  0  0
   25.5210   12.9940    8.4420 C   0  0  0  0  0  0  0  0  0  0  0  0
   24.8260   14.2190    8.6190 C   0  0  0  0  0  0  0  0  0  0  0  0
   25.5440   15.3800    8.9820 C   0  0  0  0  0  0  0  0  0  0  0  0
   25.0210   16.3170    9.1050 H   0  0  0  0  0  0  0  0  0  0  0  0
   24.8500   11.8510    8.0940 O   0  0  0  0  0  0  0  0  0  0  0  0
   23.4360   11.7100    8.2520 C   0  0  0  0  0  0  0  0  0  0  0  0
   22.7180   13.0050    7.7980 C   0  0  0  0  0  0  0  0  0  0  0  0
   21.6740   12.9400    8.1030 H   0  0  0  0  0  0  0  0  0  0  0  0
   22.7760   13.0630    6.7110 H   0  0  0  0  0  0  0  0  0  0  0  0
   23.3110   14.3040    8.3820 C   0  0  2  0  0  0  0  0  0  0  0  0
   23.0360   15.4900    7.4390 C   0  0  0  0  0  0  0  0  0  0  0  0
   22.3290   16.4140    8.1240 N   0  0  0  0  0  0  0  0  0  0  0  0
   22.0880   15.9170    9.3720 C   0  0  0  0  0  0  0  0  0  0  0  0
   22.5740   14.7390    9.5680 N   0  0  0  0  0  0  0  0  0  0  0  0
   22.4630   14.1980   10.4140 H   0  0  0  0  0  0  0  0  0  0  0  0
   27.6390   16.5060    9.5380 C   0  0  0  0  0  0  0  0  0  0  0  0
   21.9330   17.7200    7.5940 C   0  0  0  0  0  0  0  0  0  0  0  0
   22.2760   17.8130    6.5640 H   0  0  0  0  0  0  0  0  0  0  0  0
   22.3810   18.5090    8.1990 H   0  0  0  0  0  0  0  0  0  0  0  0
   20.8470   17.8110    7.6250 H   0  0  0  0  0  0  0  0  0  0  0  0
   21.3210   16.6530   10.2630 N   0  0  0  0  0  0  0  0  0  0  0  0
   21.0940   16.2700   11.1700 H   0  0  0  0  0  0  0  0  0  0  0  0
   20.9900   17.5720   10.0050 H   0  0  0  0  0  0  0  0  0  0  0  0
   27.0450   17.4570   10.4030 C   0  0  0  0  0  0  0  0  0  0  0  0
   26.0630   17.2760   10.8140 H   0  0  0  0  0  0  0  0  0  0  0  0
   27.7420   18.6460   10.7270 C   0  0  0  0  0  0  0  0  0  0  0  0
   27.1430   19.6000   11.6050 C   0  0  0  0  0  0  0  0  0  0  0  0
   25.8970   19.1420   12.0030 F   0  0  0  0  0  0  0  0  0  0  0  0
   27.0010   20.8100   10.9450 F   0  0  0  0  0  0  0  0  0  0  0  0
   27.9490   19.7720   12.7190 F   0  0  0  0  0  0  0  0  0  0  0  0
   29.0290   18.9000   10.1880 C   0  0  0  0  0  0  0  0  0  0  0  0
   29.5540   19.8090   10.4410 H   0  0  0  0  0  0  0  0  0  0  0  0
   29.6220   17.9540    9.3150 N   0  0  0  0  0  0  0  0  0  0  0  0
   28.9240   16.7660    8.9880 C   0  0  0  0  0  0  0  0  0  0  0  0
   29.3720   16.0510    8.3140 H   0  0  0  0  0  0  0  0  0  0  0  0
   23.5150   15.6060    6.3060 O   0  0  0  0  0  0  0  0  0  0  0  0
   23.0150   10.5220    7.3590 C   0  0  0  0  0  0  0  0  0  0  0  0
   23.2670   10.7410    6.3210 H   0  0  0  0  0  0  0  0  0  0  0  0
   21.9400   10.3650    7.4470 H   0  0  0  0  0  0  0  0  0  0  0  0
   23.5410    9.6230    7.6790 H   0  0  0  0  0  0  0  0  0  0  0  0
   23.0750   11.3910    9.7230 C   0  0  0  0  0  0  0  0  0  0  0  0
   23.3700   12.2260   10.3590 H   0  0  0  0  0  0  0  0  0  0  0  0
   23.6010   10.4900   10.0390 H   0  0  0  0  0  0  0  0  0  0  0  0
   22.0000   11.2320    9.8070 H   0  0  0  0  0  0  0  0  0  0  0  0
  1  2  2  0
  1  8  1  0
  1 21  1  0
  2  3  1  0
  2  4  1  0
  4  5  1  0
  4  6  2  0
  6  7  1  0
  6 10  1  0
  7  8  2  0
  7 15  1  0
  8  9  1  0
 10 11  1  0
 11 12  1  0
 11 42  1  0
 11 46  1  0
 12 13  1  0
 12 14  1  0
 15 12  1  6
 15 16  1  0
 15 19  1  0
 16 17  1  0
 16 41  2  0
 17 18  1  0
 17 22  1  0
 18 19  2  0
 18 26  1  0
 19 20  1  0
 21 29  2  0
 21 39  1  0
 22 23  1  0
 22 24  1  0
 22 25  1  0
 26 27  1  0
 26 28  1  0
 29 30  1  0
 29 31  1  0
 31 32  1  0
 31 36  2  0
 32 33  1  0
 32 34  1  0
 32 35  1  0
 36 37  1  0
 36 38  1  0
 38 39  2  0
 39 40  1  0
 42 43  1  0
 42 44  1  0
 42 45  1  0
 46 47  1  0
 46 48  1  0
 46 49  1  0
M  CHG  1  19   1
M  END
>  <r_exp_dg>  (26) 
-9.88176

>  <experimental dG reference units>  (26) 
kcal/mol

>  <experimental dG reference field>  (26) 
r_exp_dg

>  <kJ/mol experimental dG>  (26) 
-41.34528384

>  <kcal/mol experimental dG>  (26) 
-9.88176

$$$$
36
     RDKit          3D

 51 54  0  0  1  0  0  0  0  0999 V2000
   26.9470   15.3250    9.1860 C   0  0  0  0  0  0  0  0  0  0  0  0
   27.6320   14.0950    9.0140 C   0  0  0  0  0  0  0  0  0  0  0  0
   28.7000   14.0480    9.1690 H   0  0  0  0  0  0  0  0  0  0  0  0
   26.9220   12.9310    8.6410 C   0  0  0  0  0  0  0  0  0  0  0  0
   27.4460   11.9960    8.5080 H   0  0  0  0  0  0  0  0  0  0  0  0
   25.5210   12.9940    8.4420 C   0  0  0  0  0  0  0  0  0  0  0  0
   24.8260   14.2190    8.6190 C   0  0  0  0  0  0  0  0  0  0  0  0
   25.5440   15.3800    8.9820 C   0  0  0  0  0  0  0  0  0  0  0  0
   25.0210   16.3170    9.1050 H   0  0  0  0  0  0  0  0  0  0  0  0
   24.8500   11.8510    8.0940 O   0  0  0  0  0  0  0  0  0  0  0  0
   23.4360   11.7100    8.2520 C   0  0  0  0  0  0  0  0  0  0  0  0
   22.7180   13.0050    7.7980 C   0  0  0  0  0  0  0  0  0  0  0  0
   21.6740   12.9400    8.1030 H   0  0  0  0  0  0  0  0  0  0  0  0
   22.7760   13.0630    6.7110 H   0  0  0  0  0  0  0  0  0  0  0  0
   23.3110   14.3040    8.3820 C   0  0  2  0  0  0  0  0  0  0  0  0
   23.0360   15.4900    7.4390 C   0  0  0  0  0  0  0  0  0  0  0  0
   22.3290   16.4140    8.1240 N   0  0  0  0  0  0  0  0  0  0  0  0
   22.0880   15.9170    9.3720 C   0  0  0  0  0  0  0  0  0  0  0  0
   22.5740   14.7390    9.5680 N   0  0  0  0  0  0  0  0  0  0  0  0
   22.4630   14.1980   10.4140 H   0  0  0  0  0  0  0  0  0  0  0  0
   27.6390   16.5060    9.5380 C   0  0  0  0  0  0  0  0  0  0  0  0
   21.9330   17.7200    7.5940 C   0  0  0  0  0  0  0  0  0  0  0  0
   22.2760   17.8130    6.5640 H   0  0  0  0  0  0  0  0  0  0  0  0
   22.3810   18.5090    8.1990 H   0  0  0  0  0  0  0  0  0  0  0  0
   20.8470   17.8110    7.6250 H   0  0  0  0  0  0  0  0  0  0  0  0
   21.3210   16.6530   10.2630 N   0  0  0  0  0  0  0  0  0  0  0  0
   21.0940   16.2700   11.1700 H   0  0  0  0  0  0  0  0  0  0  0  0
   20.9900   17.5720   10.0050 H   0  0  0  0  0  0  0  0  0  0  0  0
   27.0450   17.4570   10.4030 C   0  0  0  0  0  0  0  0  0  0  0  0
   26.0630   17.2760   10.8140 H   0  0  0  0  0  0  0  0  0  0  0  0
   27.7420   18.6460   10.7270 C   0  0  0  0  0  0  0  0  0  0  0  0
   29.0290   18.9000   10.1880 C   0  0  0  0  0  0  0  0  0  0  0  0
   29.5540   19.8090   10.4410 H   0  0  0  0  0  0  0  0  0  0  0  0
   29.6220   17.9540    9.3150 N   0  0  0  0  0  0  0  0  0  0  0  0
   28.9240   16.7660    8.9880 C   0  0  0  0  0  0  0  0  0  0  0  0
   29.3720   16.0510    8.3140 H   0  0  0  0  0  0  0  0  0  0  0  0
   23.5150   15.6060    6.3060 O   0  0  0  0  0  0  0  0  0  0  0  0
   23.0150   10.5220    7.3590 C   0  0  0  0  0  0  0  0  0  0  0  0
   23.2670   10.7410    6.3210 H   0  0  0  0  0  0  0  0  0  0  0  0
   21.9400   10.3650    7.4470 H   0  0  0  0  0  0  0  0  0  0  0  0
   23.5410    9.6230    7.6790 H   0  0  0  0  0  0  0  0  0  0  0  0
   23.0750   11.3910    9.7230 C   0  0  0  0  0  0  0  0  0  0  0  0
   23.3700   12.2260   10.3590 H   0  0  0  0  0  0  0  0  0  0  0  0
   23.6010   10.4900   10.0390 H   0  0  0  0  0  0  0  0  0  0  0  0
   22.0000   11.2320    9.8070 H   0  0  0  0  0  0  0  0  0  0  0  0
   27.1330   19.6280   11.5960 C   0  0  0  0  0  0  0  0  0  0  0  0
   26.5100   20.5730   12.4670 C   0  0  0  0  0  0  0  0  0  0  0  0
   25.8880   21.5180   13.3380 C   0  0  0  0  0  0  0  0  0  0  0  0
   26.6540   22.0610   13.8920 H   0  0  0  0  0  0  0  0  0  0  0  0
   25.2370   20.9940   14.0370 H   0  0  0  0  0  0  0  0  0  0  0  0
   25.2980   22.2210   12.7490 H   0  0  0  0  0  0  0  0  0  0  0  0
  1  2  2  0
  1  8  1  0
  1 21  1  0
  2  3  1  0
  2  4  1  0
  4  5  1  0
  4  6  2  0
  6  7  1  0
  6 10  1  0
  7  8  2  0
  7 15  1  0
  8  9  1  0
 10 11  1  0
 11 12  1  0
 11 38  1  0
 11 42  1  0
 12 13  1  0
 12 14  1  0
 15 12  1  6
 15 16  1  0
 15 19  1  0
 16 17  1  0
 16 37  2  0
 17 18  1  0
 17 22  1  0
 18 19  2  0
 18 26  1  0
 19 20  1  0
 21 29  2  0
 21 35  1  0
 22 23  1  0
 22 24  1  0
 22 25  1  0
 26 27  1  0
 26 28  1  0
 29 30  1  0
 29 31  1  0
 31 32  2  0
 31 46  1  0
 32 33  1  0
 32 34  1  0
 34 35  2  0
 35 36  1  0
 38 39  1  0
 38 40  1  0
 38 41  1  0
 42 43  1  0
 42 44  1  0
 42 45  1  0
 46 47  3  0
 47 48  1  0
 48 49  1  0
 48 50  1  0
 48 51  1  0
M  CHG  1  19   1
M  END
>  <r_exp_dg>  (27) 
-10.9787

>  <experimental dG reference units>  (27) 
kcal/mol

>  <experimental dG reference field>  (27) 
r_exp_dg

>  <kJ/mol experimental dG>  (27) 
-45.9348808

>  <kcal/mol experimental dG>  (27) 
-10.9787

$$$$
37
     RDKit          3D

 46 49  0  0  1  0  0  0  0  0999 V2000
   26.9470   15.3250    9.1860 C   0  0  0  0  0  0  0  0  0  0  0  0
   27.6320   14.0950    9.0140 C   0  0  0  0  0  0  0  0  0  0  0  0
   28.7000   14.0480    9.1690 H   0  0  0  0  0  0  0  0  0  0  0  0
   26.9220   12.9310    8.6410 C   0  0  0  0  0  0  0  0  0  0  0  0
   27.4460   11.9960    8.5080 H   0  0  0  0  0  0  0  0  0  0  0  0
   25.5210   12.9940    8.4420 C   0  0  0  0  0  0  0  0  0  0  0  0
   24.8260   14.2190    8.6190 C   0  0  0  0  0  0  0  0  0  0  0  0
   25.5440   15.3800    8.9820 C   0  0  0  0  0  0  0  0  0  0  0  0
   25.0210   16.3170    9.1050 H   0  0  0  0  0  0  0  0  0  0  0  0
   24.8500   11.8510    8.0940 O   0  0  0  0  0  0  0  0  0  0  0  0
   23.4360   11.7100    8.2520 C   0  0  0  0  0  0  0  0  0  0  0  0
   22.7180   13.0050    7.7980 C   0  0  0  0  0  0  0  0  0  0  0  0
   21.6740   12.9400    8.1030 H   0  0  0  0  0  0  0  0  0  0  0  0
   22.7760   13.0630    6.7110 H   0  0  0  0  0  0  0  0  0  0  0  0
   23.3110   14.3040    8.3820 C   0  0  2  0  0  0  0  0  0  0  0  0
   23.0360   15.4900    7.4390 C   0  0  0  0  0  0  0  0  0  0  0  0
   22.3290   16.4140    8.1240 N   0  0  0  0  0  0  0  0  0  0  0  0
   22.0880   15.9170    9.3720 C   0  0  0  0  0  0  0  0  0  0  0  0
   22.5740   14.7390    9.5680 N   0  0  0  0  0  0  0  0  0  0  0  0
   22.4630   14.1980   10.4140 H   0  0  0  0  0  0  0  0  0  0  0  0
   27.6390   16.5060    9.5380 C   0  0  0  0  0  0  0  0  0  0  0  0
   21.9330   17.7200    7.5940 C   0  0  0  0  0  0  0  0  0  0  0  0
   22.2760   17.8130    6.5640 H   0  0  0  0  0  0  0  0  0  0  0  0
   22.3810   18.5090    8.1990 H   0  0  0  0  0  0  0  0  0  0  0  0
   20.8470   17.8110    7.6250 H   0  0  0  0  0  0  0  0  0  0  0  0
   21.3210   16.6530   10.2630 N   0  0  0  0  0  0  0  0  0  0  0  0
   21.0940   16.2700   11.1700 H   0  0  0  0  0  0  0  0  0  0  0  0
   20.9900   17.5720   10.0050 H   0  0  0  0  0  0  0  0  0  0  0  0
   27.0450   17.4570   10.4030 C   0  0  0  0  0  0  0  0  0  0  0  0
   26.0630   17.2760   10.8140 H   0  0  0  0  0  0  0  0  0  0  0  0
   27.7420   18.6460   10.7270 C   0  0  0  0  0  0  0  0  0  0  0  0
   27.2890   19.3670   11.3910 H   0  0  0  0  0  0  0  0  0  0  0  0
   29.0290   18.9000   10.1880 C   0  0  0  0  0  0  0  0  0  0  0  0
   29.5540   19.8090   10.4410 H   0  0  0  0  0  0  0  0  0  0  0  0
   29.6220   17.9540    9.3150 N   0  0  0  0  0  0  0  0  0  0  0  0
   28.9240   16.7660    8.9880 C   0  0  0  0  0  0  0  0  0  0  0  0
   29.4990   15.8480    8.1230 F   0  0  0  0  0  0  0  0  0  0  0  0
   23.5150   15.6060    6.3060 O   0  0  0  0  0  0  0  0  0  0  0  0
   23.0150   10.5220    7.3590 C   0  0  0  0  0  0  0  0  0  0  0  0
   23.2670   10.7410    6.3210 H   0  0  0  0  0  0  0  0  0  0  0  0
   21.9400   10.3650    7.4470 H   0  0  0  0  0  0  0  0  0  0  0  0
   23.5410    9.6230    7.6790 H   0  0  0  0  0  0  0  0  0  0  0  0
   23.0750   11.3910    9.7230 C   0  0  0  0  0  0  0  0  0  0  0  0
   23.3700   12.2260   10.3590 H   0  0  0  0  0  0  0  0  0  0  0  0
   23.6010   10.4900   10.0390 H   0  0  0  0  0  0  0  0  0  0  0  0
   22.0000   11.2320    9.8070 H   0  0  0  0  0  0  0  0  0  0  0  0
  1  2  2  0
  1  8  1  0
  1 21  1  0
  2  3  1  0
  2  4  1  0
  4  5  1  0
  4  6  2  0
  6  7  1  0
  6 10  1  0
  7  8  2  0
  7 15  1  0
  8  9  1  0
 10 11  1  0
 11 12  1  0
 11 39  1  0
 11 43  1  0
 12 13  1  0
 12 14  1  0
 15 12  1  6
 15 16  1  0
 15 19  1  0
 16 17  1  0
 16 38  2  0
 17 18  1  0
 17 22  1  0
 18 19  2  0
 18 26  1  0
 19 20  1  0
 21 29  2  0
 21 36  1  0
 22 23  1  0
 22 24  1  0
 22 25  1  0
 26 27  1  0
 26 28  1  0
 29 30  1  0
 29 31  1  0
 31 32  1  0
 31 33  2  0
 33 34  1  0
 33 35  1  0
 35 36  2  0
 36 37  1  0
 39 40  1  0
 39 41  1  0
 39 42  1  0
 43 44  1  0
 43 45  1  0
 43 46  1  0
M  CHG  1  19   1
M  END
>  <r_exp_dg>  (28) 
-9.45002

>  <experimental dG reference units>  (28) 
kcal/mol

>  <experimental dG reference field>  (28) 
r_exp_dg

>  <kJ/mol experimental dG>  (28) 
-39.538883680000005

>  <kcal/mol experimental dG>  (28) 
-9.45002

$$$$
38
     RDKit          3D

 46 49  0  0  1  0  0  0  0  0999 V2000
   26.9470   15.3250    9.1860 C   0  0  0  0  0  0  0  0  0  0  0  0
   27.6320   14.0950    9.0140 C   0  0  0  0  0  0  0  0  0  0  0  0
   28.7000   14.0480    9.1690 H   0  0  0  0  0  0  0  0  0  0  0  0
   26.9220   12.9310    8.6410 C   0  0  0  0  0  0  0  0  0  0  0  0
   27.4460   11.9960    8.5080 H   0  0  0  0  0  0  0  0  0  0  0  0
   25.5210   12.9940    8.4420 C   0  0  0  0  0  0  0  0  0  0  0  0
   24.8260   14.2190    8.6190 C   0  0  0  0  0  0  0  0  0  0  0  0
   25.5440   15.3800    8.9820 C   0  0  0  0  0  0  0  0  0  0  0  0
   25.0210   16.3170    9.1050 H   0  0  0  0  0  0  0  0  0  0  0  0
   24.8500   11.8510    8.0940 O   0  0  0  0  0  0  0  0  0  0  0  0
   23.4360   11.7100    8.2520 C   0  0  0  0  0  0  0  0  0  0  0  0
   22.7180   13.0050    7.7980 C   0  0  0  0  0  0  0  0  0  0  0  0
   21.6740   12.9400    8.1030 H   0  0  0  0  0  0  0  0  0  0  0  0
   22.7760   13.0630    6.7110 H   0  0  0  0  0  0  0  0  0  0  0  0
   23.3110   14.3040    8.3820 C   0  0  2  0  0  0  0  0  0  0  0  0
   23.0360   15.4900    7.4390 C   0  0  0  0  0  0  0  0  0  0  0  0
   22.3290   16.4140    8.1240 N   0  0  0  0  0  0  0  0  0  0  0  0
   22.0880   15.9170    9.3720 C   0  0  0  0  0  0  0  0  0  0  0  0
   22.5740   14.7390    9.5680 N   0  0  0  0  0  0  0  0  0  0  0  0
   22.4630   14.1980   10.4140 H   0  0  0  0  0  0  0  0  0  0  0  0
   27.6390   16.5060    9.5380 C   0  0  0  0  0  0  0  0  0  0  0  0
   21.9330   17.7200    7.5940 C   0  0  0  0  0  0  0  0  0  0  0  0
   22.2760   17.8130    6.5640 H   0  0  0  0  0  0  0  0  0  0  0  0
   22.3810   18.5090    8.1990 H   0  0  0  0  0  0  0  0  0  0  0  0
   20.8470   17.8110    7.6250 H   0  0  0  0  0  0  0  0  0  0  0  0
   21.3210   16.6530   10.2630 N   0  0  0  0  0  0  0  0  0  0  0  0
   21.0940   16.2700   11.1700 H   0  0  0  0  0  0  0  0  0  0  0  0
   20.9900   17.5720   10.0050 H   0  0  0  0  0  0  0  0  0  0  0  0
   27.0450   17.4570   10.4030 C   0  0  0  0  0  0  0  0  0  0  0  0
   26.0630   17.2760   10.8140 H   0  0  0  0  0  0  0  0  0  0  0  0
   27.7420   18.6460   10.7270 C   0  0  0  0  0  0  0  0  0  0  0  0
   27.1610   19.5710   11.5800 F   0  0  0  0  0  0  0  0  0  0  0  0
   29.0290   18.9000   10.1880 C   0  0  0  0  0  0  0  0  0  0  0  0
   29.5540   19.8090   10.4410 H   0  0  0  0  0  0  0  0  0  0  0  0
   29.6220   17.9540    9.3150 N   0  0  0  0  0  0  0  0  0  0  0  0
   28.9240   16.7660    8.9880 C   0  0  0  0  0  0  0  0  0  0  0  0
   29.3720   16.0510    8.3140 H   0  0  0  0  0  0  0  0  0  0  0  0
   23.5150   15.6060    6.3060 O   0  0  0  0  0  0  0  0  0  0  0  0
   23.0150   10.5220    7.3590 C   0  0  0  0  0  0  0  0  0  0  0  0
   23.2670   10.7410    6.3210 H   0  0  0  0  0  0  0  0  0  0  0  0
   21.9400   10.3650    7.4470 H   0  0  0  0  0  0  0  0  0  0  0  0
   23.5410    9.6230    7.6790 H   0  0  0  0  0  0  0  0  0  0  0  0
   23.0750   11.3910    9.7230 C   0  0  0  0  0  0  0  0  0  0  0  0
   23.3700   12.2260   10.3590 H   0  0  0  0  0  0  0  0  0  0  0  0
   23.6010   10.4900   10.0390 H   0  0  0  0  0  0  0  0  0  0  0  0
   22.0000   11.2320    9.8070 H   0  0  0  0  0  0  0  0  0  0  0  0
  1  2  2  0
  1  8  1  0
  1 21  1  0
  2  3  1  0
  2  4  1  0
  4  5  1  0
  4  6  2  0
  6  7  1  0
  6 10  1  0
  7  8  2  0
  7 15  1  0
  8  9  1  0
 10 11  1  0
 11 12  1  0
 11 39  1  0
 11 43  1  0
 12 13  1  0
 12 14  1  0
 15 12  1  6
 15 16  1  0
 15 19  1  0
 16 17  1  0
 16 38  2  0
 17 18  1  0
 17 22  1  0
 18 19  2  0
 18 26  1  0
 19 20  1  0
 21 29  2  0
 21 36  1  0
 22 23  1  0
 22 24  1  0
 22 25  1  0
 26 27  1  0
 26 28  1  0
 29 30  1  0
 29 31  1  0
 31 32  1  0
 31 33  2  0
 33 34  1  0
 33 35  1  0
 35 36  2  0
 36 37  1  0
 39 40  1  0
 39 41  1  0
 39 42  1  0
 43 44  1  0
 43 45  1  0
 43 46  1  0
M  CHG  1  19   1
M  END
>  <r_exp_dg>  (29) 
-9.38493

>  <experimental dG reference units>  (29) 
kcal/mol

>  <experimental dG reference field>  (29) 
r_exp_dg

>  <kJ/mol experimental dG>  (29) 
-39.266547120000006

>  <kcal/mol experimental dG>  (29) 
-9.38493

$$$$
39
     RDKit          3D

 45 48  0  0  1  0  0  0  0  0999 V2000
   26.9470   15.3250    9.1860 C   0  0  0  0  0  0  0  0  0  0  0  0
   27.6320   14.0950    9.0140 C   0  0  0  0  0  0  0  0  0  0  0  0
   28.7000   14.0480    9.1690 H   0  0  0  0  0  0  0  0  0  0  0  0
   26.9220   12.9310    8.6410 C   0  0  0  0  0  0  0  0  0  0  0  0
   27.4460   11.9960    8.5080 H   0  0  0  0  0  0  0  0  0  0  0  0
   25.5210   12.9940    8.4420 C   0  0  0  0  0  0  0  0  0  0  0  0
   24.8260   14.2190    8.6190 C   0  0  0  0  0  0  0  0  0  0  0  0
   25.5440   15.3800    8.9820 C   0  0  0  0  0  0  0  0  0  0  0  0
   25.0210   16.3170    9.1050 H   0  0  0  0  0  0  0  0  0  0  0  0
   24.8500   11.8510    8.0940 O   0  0  0  0  0  0  0  0  0  0  0  0
   23.4360   11.7100    8.2520 C   0  0  0  0  0  0  0  0  0  0  0  0
   22.7180   13.0050    7.7980 C   0  0  0  0  0  0  0  0  0  0  0  0
   21.6740   12.9400    8.1030 H   0  0  0  0  0  0  0  0  0  0  0  0
   22.7760   13.0630    6.7110 H   0  0  0  0  0  0  0  0  0  0  0  0
   23.3110   14.3040    8.3820 C   0  0  2  0  0  0  0  0  0  0  0  0
   23.0360   15.4900    7.4390 C   0  0  0  0  0  0  0  0  0  0  0  0
   22.3290   16.4140    8.1240 N   0  0  0  0  0  0  0  0  0  0  0  0
   22.0880   15.9170    9.3720 C   0  0  0  0  0  0  0  0  0  0  0  0
   22.5740   14.7390    9.5680 N   0  0  0  0  0  0  0  0  0  0  0  0
   22.4630   14.1980   10.4140 H   0  0  0  0  0  0  0  0  0  0  0  0
   27.6390   16.5060    9.5380 C   0  0  0  0  0  0  0  0  0  0  0  0
   21.9330   17.7200    7.5940 C   0  0  0  0  0  0  0  0  0  0  0  0
   22.2760   17.8130    6.5640 H   0  0  0  0  0  0  0  0  0  0  0  0
   22.3810   18.5090    8.1990 H   0  0  0  0  0  0  0  0  0  0  0  0
   20.8470   17.8110    7.6250 H   0  0  0  0  0  0  0  0  0  0  0  0
   21.3210   16.6530   10.2630 N   0  0  0  0  0  0  0  0  0  0  0  0
   21.0940   16.2700   11.1700 H   0  0  0  0  0  0  0  0  0  0  0  0
   20.9900   17.5720   10.0050 H   0  0  0  0  0  0  0  0  0  0  0  0
   27.0450   17.4570   10.4030 C   0  0  0  0  0  0  0  0  0  0  0  0
   26.0630   17.2760   10.8140 H   0  0  0  0  0  0  0  0  0  0  0  0
   27.7420   18.6460   10.7270 N   0  0  0  0  0  0  0  0  0  0  0  0
   29.0290   18.9000   10.1880 C   0  0  0  0  0  0  0  0  0  0  0  0
   29.5540   19.8090   10.4410 H   0  0  0  0  0  0  0  0  0  0  0  0
   29.6220   17.9540    9.3150 N   0  0  0  0  0  0  0  0  0  0  0  0
   28.9240   16.7660    8.9880 C   0  0  0  0  0  0  0  0  0  0  0  0
   29.3720   16.0510    8.3140 H   0  0  0  0  0  0  0  0  0  0  0  0
   23.5150   15.6060    6.3060 O   0  0  0  0  0  0  0  0  0  0  0  0
   23.0150   10.5220    7.3590 C   0  0  0  0  0  0  0  0  0  0  0  0
   23.2670   10.7410    6.3210 H   0  0  0  0  0  0  0  0  0  0  0  0
   21.9400   10.3650    7.4470 H   0  0  0  0  0  0  0  0  0  0  0  0
   23.5410    9.6230    7.6790 H   0  0  0  0  0  0  0  0  0  0  0  0
   23.0750   11.3910    9.7230 C   0  0  0  0  0  0  0  0  0  0  0  0
   23.3700   12.2260   10.3590 H   0  0  0  0  0  0  0  0  0  0  0  0
   23.6010   10.4900   10.0390 H   0  0  0  0  0  0  0  0  0  0  0  0
   22.0000   11.2320    9.8070 H   0  0  0  0  0  0  0  0  0  0  0  0
  1  2  2  0
  1  8  1  0
  1 21  1  0
  2  3  1  0
  2  4  1  0
  4  5  1  0
  4  6  2  0
  6  7  1  0
  6 10  1  0
  7  8  2  0
  7 15  1  0
  8  9  1  0
 10 11  1  0
 11 12  1  0
 11 38  1  0
 11 42  1  0
 12 13  1  0
 12 14  1  0
 15 12  1  6
 15 16  1  0
 15 19  1  0
 16 17  1  0
 16 37  2  0
 17 18  1  0
 17 22  1  0
 18 19  2  0
 18 26  1  0
 19 20  1  0
 21 29  2  0
 21 35  1  0
 22 23  1  0
 22 24  1  0
 22 25  1  0
 26 27  1  0
 26 28  1  0
 29 30  1  0
 29 31  1  0
 31 32  2  0
 32 33  1  0
 32 34  1  0
 34 35  2  0
 35 36  1  0
 38 39  1  0
 38 40  1  0
 38 41  1  0
 42 43  1  0
 42 44  1  0
 42 45  1  0
M  CHG  1  19   1
M  END
>  <r_exp_dg>  (30) 
-9.36077

>  <experimental dG reference units>  (30) 
kcal/mol

>  <experimental dG reference field>  (30) 
r_exp_dg

>  <kJ/mol experimental dG>  (30) 
-39.16546168000001

>  <kcal/mol experimental dG>  (30) 
-9.36077

$$$$
40
     RDKit          3D

 43 46  0  0  1  0  0  0  0  0999 V2000
   26.9470   15.3250    9.1860 C   0  0  0  0  0  0  0  0  0  0  0  0
   27.6320   14.0950    9.0140 C   0  0  0  0  0  0  0  0  0  0  0  0
   28.7000   14.0480    9.1690 H   0  0  0  0  0  0  0  0  0  0  0  0
   26.9220   12.9310    8.6410 C   0  0  0  0  0  0  0  0  0  0  0  0
   27.4460   11.9960    8.5080 H   0  0  0  0  0  0  0  0  0  0  0  0
   25.5210   12.9940    8.4420 C   0  0  0  0  0  0  0  0  0  0  0  0
   24.8260   14.2190    8.6190 C   0  0  0  0  0  0  0  0  0  0  0  0
   25.5440   15.3800    8.9820 C   0  0  0  0  0  0  0  0  0  0  0  0
   25.0210   16.3170    9.1050 H   0  0  0  0  0  0  0  0  0  0  0  0
   24.8500   11.8510    8.0940 O   0  0  0  0  0  0  0  0  0  0  0  0
   23.4360   11.7100    8.2520 C   0  0  0  0  0  0  0  0  0  0  0  0
   22.7180   13.0050    7.7980 C   0  0  0  0  0  0  0  0  0  0  0  0
   21.6740   12.9400    8.1030 H   0  0  0  0  0  0  0  0  0  0  0  0
   22.7760   13.0630    6.7110 H   0  0  0  0  0  0  0  0  0  0  0  0
   23.3110   14.3040    8.3820 C   0  0  2  0  0  0  0  0  0  0  0  0
   23.0360   15.4900    7.4390 C   0  0  0  0  0  0  0  0  0  0  0  0
   22.3290   16.4140    8.1240 N   0  0  0  0  0  0  0  0  0  0  0  0
   22.0880   15.9170    9.3720 C   0  0  0  0  0  0  0  0  0  0  0  0
   22.5740   14.7390    9.5680 N   0  0  0  0  0  0  0  0  0  0  0  0
   22.4630   14.1980   10.4140 H   0  0  0  0  0  0  0  0  0  0  0  0
   21.9330   17.7200    7.5940 C   0  0  0  0  0  0  0  0  0  0  0  0
   22.2760   17.8130    6.5640 H   0  0  0  0  0  0  0  0  0  0  0  0
   22.3810   18.5090    8.1990 H   0  0  0  0  0  0  0  0  0  0  0  0
   20.8470   17.8110    7.6250 H   0  0  0  0  0  0  0  0  0  0  0  0
   21.3210   16.6530   10.2630 N   0  0  0  0  0  0  0  0  0  0  0  0
   21.0940   16.2700   11.1700 H   0  0  0  0  0  0  0  0  0  0  0  0
   20.9900   17.5720   10.0050 H   0  0  0  0  0  0  0  0  0  0  0  0
   23.5150   15.6060    6.3060 O   0  0  0  0  0  0  0  0  0  0  0  0
   23.0150   10.5220    7.3590 C   0  0  0  0  0  0  0  0  0  0  0  0
   23.2670   10.7410    6.3210 H   0  0  0  0  0  0  0  0  0  0  0  0
   21.9400   10.3650    7.4470 H   0  0  0  0  0  0  0  0  0  0  0  0
   23.5410    9.6230    7.6790 H   0  0  0  0  0  0  0  0  0  0  0  0
   23.0750   11.3910    9.7230 C   0  0  0  0  0  0  0  0  0  0  0  0
   23.3700   12.2260   10.3590 H   0  0  0  0  0  0  0  0  0  0  0  0
   23.6010   10.4900   10.0390 H   0  0  0  0  0  0  0  0  0  0  0  0
   22.0000   11.2320    9.8070 H   0  0  0  0  0  0  0  0  0  0  0  0
   29.0690   18.2360    9.4960 C   0  0  0  0  0  0  0  0  0  0  0  0
   29.8110   18.9490    9.1690 H   0  0  0  0  0  0  0  0  0  0  0  0
   28.6000   17.1200    8.7550 C   0  0  0  0  0  0  0  0  0  0  0  0
   28.9230   16.8340    7.7650 H   0  0  0  0  0  0  0  0  0  0  0  0
   27.6310   16.4450    9.5440 C   0  0  0  0  0  0  0  0  0  0  0  0
   27.5010   17.1450   10.7730 S   0  0  0  0  0  0  0  0  0  0  0  0
   28.3900   18.2510   10.7430 N   0  0  0  0  0  0  0  0  0  0  0  0
  1  2  2  0
  1  8  1  0
  1 41  1  0
  2  3  1  0
  2  4  1  0
  4  5  1  0
  4  6  2  0
  6  7  1  0
  6 10  1  0
  7  8  2  0
  7 15  1  0
  8  9  1  0
 10 11  1  0
 11 12  1  0
 11 29  1  0
 11 33  1  0
 12 13  1  0
 12 14  1  0
 15 12  1  6
 15 16  1  0
 15 19  1  0
 16 17  1  0
 16 28  2  0
 17 18  1  0
 17 21  1  0
 18 19  2  0
 18 25  1  0
 19 20  1  0
 21 22  1  0
 21 23  1  0
 21 24  1  0
 25 26  1  0
 25 27  1  0
 29 30  1  0
 29 31  1  0
 29 32  1  0
 33 34  1  0
 33 35  1  0
 33 36  1  0
 37 38  1  0
 37 39  1  0
 37 43  2  0
 39 40  1  0
 39 41  2  0
 41 42  1  0
 42 43  1  0
M  CHG  1  19   1
M  END
>  <r_exp_dg>  (31) 
-8.64597

>  <experimental dG reference units>  (31) 
kcal/mol

>  <experimental dG reference field>  (31) 
r_exp_dg

>  <kJ/mol experimental dG>  (31) 
-36.17473848

>  <kcal/mol experimental dG>  (31) 
-8.64597

$$$$
41
     RDKit          3D

 51 54  0  0  1  0  0  0  0  0999 V2000
   26.9470   15.3250    9.1860 C   0  0  0  0  0  0  0  0  0  0  0  0
   27.6320   14.0950    9.0140 C   0  0  0  0  0  0  0  0  0  0  0  0
   28.7000   14.0480    9.1690 H   0  0  0  0  0  0  0  0  0  0  0  0
   26.9220   12.9310    8.6410 C   0  0  0  0  0  0  0  0  0  0  0  0
   27.4460   11.9960    8.5080 H   0  0  0  0  0  0  0  0  0  0  0  0
   25.5210   12.9940    8.4420 C   0  0  0  0  0  0  0  0  0  0  0  0
   24.8260   14.2190    8.6190 C   0  0  0  0  0  0  0  0  0  0  0  0
   25.5440   15.3800    8.9820 C   0  0  0  0  0  0  0  0  0  0  0  0
   25.0210   16.3170    9.1050 H   0  0  0  0  0  0  0  0  0  0  0  0
   24.8500   11.8510    8.0940 O   0  0  0  0  0  0  0  0  0  0  0  0
   23.4360   11.7100    8.2520 C   0  0  0  0  0  0  0  0  0  0  0  0
   22.7180   13.0050    7.7980 C   0  0  0  0  0  0  0  0  0  0  0  0
   21.6740   12.9400    8.1030 H   0  0  0  0  0  0  0  0  0  0  0  0
   22.7760   13.0630    6.7110 H   0  0  0  0  0  0  0  0  0  0  0  0
   23.3110   14.3040    8.3820 C   0  0  2  0  0  0  0  0  0  0  0  0
   23.0360   15.4900    7.4390 C   0  0  0  0  0  0  0  0  0  0  0  0
   22.3290   16.4140    8.1240 N   0  0  0  0  0  0  0  0  0  0  0  0
   22.0880   15.9170    9.3720 C   0  0  0  0  0  0  0  0  0  0  0  0
   22.5740   14.7390    9.5680 N   0  0  0  0  0  0  0  0  0  0  0  0
   22.4630   14.1980   10.4140 H   0  0  0  0  0  0  0  0  0  0  0  0
   21.9330   17.7200    7.5940 C   0  0  0  0  0  0  0  0  0  0  0  0
   22.2760   17.8130    6.5640 H   0  0  0  0  0  0  0  0  0  0  0  0
   22.3810   18.5090    8.1990 H   0  0  0  0  0  0  0  0  0  0  0  0
   20.8470   17.8110    7.6250 H   0  0  0  0  0  0  0  0  0  0  0  0
   21.3210   16.6530   10.2630 N   0  0  0  0  0  0  0  0  0  0  0  0
   21.0940   16.2700   11.1700 H   0  0  0  0  0  0  0  0  0  0  0  0
   20.9900   17.5720   10.0050 H   0  0  0  0  0  0  0  0  0  0  0  0
   23.5150   15.6060    6.3060 O   0  0  0  0  0  0  0  0  0  0  0  0
   23.0150   10.5220    7.3590 C   0  0  0  0  0  0  0  0  0  0  0  0
   23.2670   10.7410    6.3210 H   0  0  0  0  0  0  0  0  0  0  0  0
   21.9400   10.3650    7.4470 H   0  0  0  0  0  0  0  0  0  0  0  0
   23.5410    9.6230    7.6790 H   0  0  0  0  0  0  0  0  0  0  0  0
   23.0750   11.3910    9.7230 C   0  0  0  0  0  0  0  0  0  0  0  0
   23.3700   12.2260   10.3590 H   0  0  0  0  0  0  0  0  0  0  0  0
   23.6010   10.4900   10.0390 H   0  0  0  0  0  0  0  0  0  0  0  0
   22.0000   11.2320    9.8070 H   0  0  0  0  0  0  0  0  0  0  0  0
   28.9780   16.3620    9.7230 C   0  0  0  0  0  0  0  0  0  0  0  0
   29.6260   15.3360    9.5810 O   0  0  0  0  0  0  0  0  0  0  0  0
   27.6310   16.4450    9.5440 N   0  0  0  0  0  0  0  0  0  0  0  0
   27.1160   17.3070    9.6680 H   0  0  0  0  0  0  0  0  0  0  0  0
   31.0700   19.1820   10.5810 C   0  0  0  0  0  0  0  0  0  0  0  0
   32.0060   19.6950   10.7500 H   0  0  0  0  0  0  0  0  0  0  0  0
   30.9210   17.8270   10.1880 C   0  0  0  0  0  0  0  0  0  0  0  0
   31.7230   17.1270   10.0040 H   0  0  0  0  0  0  0  0  0  0  0  0
   29.5320   17.5520   10.0780 C   0  0  0  0  0  0  0  0  0  0  0  0
   28.8230   18.7390   10.4030 O   0  0  0  0  0  0  0  0  0  0  0  0
   29.7740   19.7460   10.7140 C   0  0  0  0  0  0  0  0  0  0  0  0
   29.4780   21.0900   11.0950 C   0  0  0  0  0  0  0  0  0  0  0  0
   30.4080   21.6310   11.2710 H   0  0  0  0  0  0  0  0  0  0  0  0
   28.8810   21.0870   12.0070 H   0  0  0  0  0  0  0  0  0  0  0  0
   28.9200   21.5790   10.2970 H   0  0  0  0  0  0  0  0  0  0  0  0
  1  2  2  0
  1  8  1  0
  1 39  1  0
  2  3  1  0
  2  4  1  0
  4  5  1  0
  4  6  2  0
  6  7  1  0
  6 10  1  0
  7  8  2  0
  7 15  1  0
  8  9  1  0
 10 11  1  0
 11 12  1  0
 11 29  1  0
 11 33  1  0
 12 13  1  0
 12 14  1  0
 15 12  1  6
 15 16  1  0
 15 19  1  0
 16 17  1  0
 16 28  2  0
 17 18  1  0
 17 21  1  0
 18 19  2  0
 18 25  1  0
 19 20  1  0
 21 22  1  0
 21 23  1  0
 21 24  1  0
 25 26  1  0
 25 27  1  0
 29 30  1  0
 29 31  1  0
 29 32  1  0
 33 34  1  0
 33 35  1  0
 33 36  1  0
 37 38  2  0
 37 39  1  0
 37 45  1  0
 39 40  1  0
 41 42  1  0
 41 43  1  0
 41 47  2  0
 43 44  1  0
 43 45  2  0
 45 46  1  0
 46 47  1  0
 47 48  1  0
 48 49  1  0
 48 50  1  0
 48 51  1  0
M  CHG  1  19   1
M  END
>  <r_exp_dg>  (32) 
-9.10997

>  <experimental dG reference units>  (32) 
kcal/mol

>  <experimental dG reference field>  (32) 
r_exp_dg

>  <kJ/mol experimental dG>  (32) 
-38.11611448000001

>  <kcal/mol experimental dG>  (32) 
-9.10997

$$$$
