1a
     RDKit          3D

 37 39  0  0  1  0  0  0  0  0999 V2000
   26.9470   15.3250    9.1860 C   0  0  0  0  0  0  0  0  0  0  0  0
   27.6320   14.0950    9.0140 C   0  0  0  0  0  0  0  0  0  0  0  0
   28.7000   14.0480    9.1690 H   0  0  0  0  0  0  0  0  0  0  0  0
   26.9220   12.9310    8.6410 C   0  0  0  0  0  0  0  0  0  0  0  0
   27.4460   11.9960    8.5080 H   0  0  0  0  0  0  0  0  0  0  0  0
   25.5210   12.9940    8.4420 C   0  0  0  0  0  0  0  0  0  0  0  0
   24.8260   14.2190    8.6190 C   0  0  0  0  0  0  0  0  0  0  0  0
   25.5440   15.3800    8.9820 C   0  0  0  0  0  0  0  0  0  0  0  0
   25.0210   16.3170    9.1050 H   0  0  0  0  0  0  0  0  0  0  0  0
   24.8500   11.8510    8.0940 O   0  0  0  0  0  0  0  0  0  0  0  0
   23.4360   11.7100    8.2520 C   0  0  0  0  0  0  0  0  0  0  0  0
   22.7180   13.0050    7.7980 C   0  0  0  0  0  0  0  0  0  0  0  0
   21.6740   12.9400    8.1030 H   0  0  0  0  0  0  0  0  0  0  0  0
   22.7760   13.0630    6.7110 H   0  0  0  0  0  0  0  0  0  0  0  0
   23.3110   14.3040    8.3820 C   0  0  2  0  0  0  0  0  0  0  0  0
   23.0360   15.4900    7.4390 C   0  0  0  0  0  0  0  0  0  0  0  0
   22.3290   16.4140    8.1240 N   0  0  0  0  0  0  0  0  0  0  0  0
   22.0880   15.9170    9.3720 C   0  0  0  0  0  0  0  0  0  0  0  0
   22.5740   14.7390    9.5680 N   0  0  0  0  0  0  0  0  0  0  0  0
   22.4630   14.1980   10.4140 H   0  0  0  0  0  0  0  0  0  0  0  0
   27.6390   16.5060    9.5380 Br  0  0  0  0  0  0  0  0  0  0  0  0
   21.9330   17.7200    7.5940 C   0  0  0  0  0  0  0  0  0  0  0  0
   22.2760   17.8130    6.5640 H   0  0  0  0  0  0  0  0  0  0  0  0
   22.3810   18.5090    8.1990 H   0  0  0  0  0  0  0  0  0  0  0  0
   20.8470   17.8110    7.6250 H   0  0  0  0  0  0  0  0  0  0  0  0
   21.3210   16.6530   10.2630 N   0  0  0  0  0  0  0  0  0  0  0  0
   21.0940   16.2700   11.1700 H   0  0  0  0  0  0  0  0  0  0  0  0
   20.9900   17.5720   10.0050 H   0  0  0  0  0  0  0  0  0  0  0  0
   23.5150   15.6060    6.3060 O   0  0  0  0  0  0  0  0  0  0  0  0
   23.0150   10.5220    7.3590 C   0  0  0  0  0  0  0  0  0  0  0  0
   23.2670   10.7410    6.3210 H   0  0  0  0  0  0  0  0  0  0  0  0
   21.9400   10.3650    7.4470 H   0  0  0  0  0  0  0  0  0  0  0  0
   23.5410    9.6230    7.6790 H   0  0  0  0  0  0  0  0  0  0  0  0
   23.0750   11.3910    9.7230 C   0  0  0  0  0  0  0  0  0  0  0  0
   23.3700   12.2260   10.3590 H   0  0  0  0  0  0  0  0  0  0  0  0
   23.6010   10.4900   10.0390 H   0  0  0  0  0  0  0  0  0  0  0  0
   22.0000   11.2320    9.8070 H   0  0  0  0  0  0  0  0  0  0  0  0
  1  2  2  0
  1  8  1  0
  1 21  1  0
  2  3  1  0
  2  4  1  0
  4  5  1  0
  4  6  2  0
  6  7  1  0
  6 10  1  0
  7  8  2  0
  7 15  1  0
  8  9  1  0
 10 11  1  0
 11 12  1  0
 11 30  1  0
 11 34  1  0
 12 13  1  0
 12 14  1  0
 15 12  1  6
 15 16  1  0
 15 19  1  0
 16 17  1  0
 16 29  2  0
 17 18  1  0
 17 22  1  0
 18 19  2  0
 18 26  1  0
 19 20  1  0
 22 23  1  0
 22 24  1  0
 22 25  1  0
 26 27  1  0
 26 28  1  0
 30 31  1  0
 30 32  1  0
 30 33  1  0
 34 35  1  0
 34 36  1  0
 34 37  1  0
M  CHG  1  19   1
M  END
>  <r_exp_dg>  (1) 
-6.08468

>  <experimental dG reference units>  (1) 
kcal/mol

>  <experimental dG reference field>  (1) 
r_exp_dg

>  <kJ/mol experimental dG>  (1) 
-25.458301119999998

>  <kcal/mol experimental dG>  (1) 
-6.08468

>  <AmberAM1BCCCache>  (1) 
gASVGgMAAAAAAABdlCiMFm51bXB5Ll9jb3JlLm11bHRpYXJyYXmUjAZzY2FsYXKUk5SMBW51bXB5lIwFZHR5cGWUk5SMAmY4lImIh5RSlChLA4wBPJROTk5K/////0r/////SwB0lGJDCMTUvFakc+W/lIaUUpRoA2gJQwgortmf9mHav5SGlFKUaANoCUMIGdygcgFpAECUhpRSlGgDaAlDCGVjPA1IV/u/lIaUUpRoA2gJQwhH0NaXtOEAQJSGlFKUaANoCUMIA3dW11tmAkCUhpRSlGgDaAlDCD7AhmueRwbAlIaUUpRoA2gJQwgWjNNhk2Tqv5SGlFKUaANoCUMIQojy77GF+D+UhpRSlGgDaAlDCH3o+oXC1wzAlIaUUpRoA2gJQwjgzH4XKPT9P5SGlFKUaANoCUMIgo7jRdZ+87+UhpRSlGgDaAlDCJCKIukIQ/A/lIaUUpRoA2gJQwiQiiLpCEPwP5SGlFKUaANoCUMIMA+Xyyit7D+UhpRSlGgDaAlDCJpB2X2RcSBAlIaUUpRoA2gJQwj8gMvtswQTwJSGlFKUaANoCUMIwKJsn8xlFECUhpRSlGgDaAlDCPvezwXFTxHAlIaUUpRoA2gJQwhm9/vOb6gPQJSGlFKUaANoCUMIF7SHpt863r+UhpRSlGgDaAlDCI1svfJe3uQ/lIaUUpRoA2gJQwj4tYswsQrwP5SGlFKUaANoCUMI+LWLMLEK8D+UhpRSlGgDaAlDCPi1izCxCvA/lIaUUpRoA2gJQwhQbI67juIVwJSGlFKUaANoCUMIfv5BUgRgD0CUhpRSlGgDaAlDCH7+QVIEYA9AlIaUUpRoA2gJQwiGIcDgCc4VwJSGlFKUaANoCUMI2JP89CZT9b+UhpRSlGgDaAlDCHPgcYUIaug/lIaUUpRoA2gJQwhz4HGFCGroP5SGlFKUaANoCUMIc+BxhQhq6D+UhpRSlGgDaAlDCNiT/PQmU/W/lIaUUpRoA2gJQwhz4HGFCGroP5SGlFKUaANoCUMIc+BxhQhq6D+UhpRSlGgDaAlDCHPgcYUIaug/lIaUUpRlLg==

$$$$
11
     RDKit          3D

 47 50  0  0  1  0  0  0  0  0999 V2000
   26.9470   15.3250    9.1860 C   0  0  0  0  0  0  0  0  0  0  0  0
   27.6320   14.0950    9.0140 C   0  0  0  0  0  0  0  0  0  0  0  0
   28.7000   14.0480    9.1690 H   0  0  0  0  0  0  0  0  0  0  0  0
   26.9220   12.9310    8.6410 C   0  0  0  0  0  0  0  0  0  0  0  0
   27.4460   11.9960    8.5080 H   0  0  0  0  0  0  0  0  0  0  0  0
   25.5210   12.9940    8.4420 C   0  0  0  0  0  0  0  0  0  0  0  0
   24.8260   14.2190    8.6190 C   0  0  0  0  0  0  0  0  0  0  0  0
   25.5440   15.3800    8.9820 C   0  0  0  0  0  0  0  0  0  0  0  0
   25.0210   16.3170    9.1050 H   0  0  0  0  0  0  0  0  0  0  0  0
   24.8500   11.8510    8.0940 O   0  0  0  0  0  0  0  0  0  0  0  0
   23.4360   11.7100    8.2520 C   0  0  0  0  0  0  0  0  0  0  0  0
   22.7180   13.0050    7.7980 C   0  0  0  0  0  0  0  0  0  0  0  0
   21.6740   12.9400    8.1030 H   0  0  0  0  0  0  0  0  0  0  0  0
   22.7760   13.0630    6.7110 H   0  0  0  0  0  0  0  0  0  0  0  0
   23.3110   14.3040    8.3820 C   0  0  2  0  0  0  0  0  0  0  0  0
   23.0360   15.4900    7.4390 C   0  0  0  0  0  0  0  0  0  0  0  0
   22.3290   16.4140    8.1240 N   0  0  0  0  0  0  0  0  0  0  0  0
   22.0880   15.9170    9.3720 C   0  0  0  0  0  0  0  0  0  0  0  0
   22.5740   14.7390    9.5680 N   0  0  0  0  0  0  0  0  0  0  0  0
   22.4630   14.1980   10.4140 H   0  0  0  0  0  0  0  0  0  0  0  0
   27.6390   16.5060    9.5380 C   0  0  0  0  0  0  0  0  0  0  0  0
   21.9330   17.7200    7.5940 C   0  0  0  0  0  0  0  0  0  0  0  0
   22.2760   17.8130    6.5640 H   0  0  0  0  0  0  0  0  0  0  0  0
   22.3810   18.5090    8.1990 H   0  0  0  0  0  0  0  0  0  0  0  0
   20.8470   17.8110    7.6250 H   0  0  0  0  0  0  0  0  0  0  0  0
   21.3210   16.6530   10.2630 N   0  0  0  0  0  0  0  0  0  0  0  0
   21.0940   16.2700   11.1700 H   0  0  0  0  0  0  0  0  0  0  0  0
   20.9900   17.5720   10.0050 H   0  0  0  0  0  0  0  0  0  0  0  0
   27.0450   17.4570   10.4030 C   0  0  0  0  0  0  0  0  0  0  0  0
   26.0630   17.2760   10.8140 H   0  0  0  0  0  0  0  0  0  0  0  0
   27.7420   18.6460   10.7270 C   0  0  0  0  0  0  0  0  0  0  0  0
   27.2890   19.3670   11.3910 H   0  0  0  0  0  0  0  0  0  0  0  0
   29.0290   18.9000   10.1880 C   0  0  0  0  0  0  0  0  0  0  0  0
   29.5540   19.8090   10.4410 H   0  0  0  0  0  0  0  0  0  0  0  0
   29.6220   17.9540    9.3150 C   0  0  0  0  0  0  0  0  0  0  0  0
   30.6020   18.1380    8.9010 H   0  0  0  0  0  0  0  0  0  0  0  0
   28.9240   16.7660    8.9880 C   0  0  0  0  0  0  0  0  0  0  0  0
   29.3720   16.0510    8.3140 H   0  0  0  0  0  0  0  0  0  0  0  0
   23.5150   15.6060    6.3060 O   0  0  0  0  0  0  0  0  0  0  0  0
   23.0150   10.5220    7.3590 C   0  0  0  0  0  0  0  0  0  0  0  0
   23.2670   10.7410    6.3210 H   0  0  0  0  0  0  0  0  0  0  0  0
   21.9400   10.3650    7.4470 H   0  0  0  0  0  0  0  0  0  0  0  0
   23.5410    9.6230    7.6790 H   0  0  0  0  0  0  0  0  0  0  0  0
   23.0750   11.3910    9.7230 C   0  0  0  0  0  0  0  0  0  0  0  0
   23.3700   12.2260   10.3590 H   0  0  0  0  0  0  0  0  0  0  0  0
   23.6010   10.4900   10.0390 H   0  0  0  0  0  0  0  0  0  0  0  0
   22.0000   11.2320    9.8070 H   0  0  0  0  0  0  0  0  0  0  0  0
  1  2  2  0
  1  8  1  0
  1 21  1  0
  2  3  1  0
  2  4  1  0
  4  5  1  0
  4  6  2  0
  6  7  1  0
  6 10  1  0
  7  8  2  0
  7 15  1  0
  8  9  1  0
 10 11  1  0
 11 12  1  0
 11 40  1  0
 11 44  1  0
 12 13  1  0
 12 14  1  0
 15 12  1  6
 15 16  1  0
 15 19  1  0
 16 17  1  0
 16 39  2  0
 17 18  1  0
 17 22  1  0
 18 19  2  0
 18 26  1  0
 19 20  1  0
 21 29  2  0
 21 37  1  0
 22 23  1  0
 22 24  1  0
 22 25  1  0
 26 27  1  0
 26 28  1  0
 29 30  1  0
 29 31  1  0
 31 32  1  0
 31 33  2  0
 33 34  1  0
 33 35  1  0
 35 36  1  0
 35 37  2  0
 37 38  1  0
 40 41  1  0
 40 42  1  0
 40 43  1  0
 44 45  1  0
 44 46  1  0
 44 47  1  0
M  CHG  1  19   1
M  END
>  <r_exp_dg>  (2) 
-8.70337

>  <experimental dG reference units>  (2) 
kcal/mol

>  <experimental dG reference field>  (2) 
r_exp_dg

>  <kJ/mol experimental dG>  (2) 
-36.41490008

>  <kcal/mol experimental dG>  (2) 
-8.70337

>  <AmberAM1BCCCache>  (2) 
gASV2AMAAAAAAABdlCiMFm51bXB5Ll9jb3JlLm11bHRpYXJyYXmUjAZzY2FsYXKUk5SMBW51bXB5lIwFZHR5cGWUk5SMAmY4lImIh5RSlChLA4wBPJROTk5K/////0r/////SwB0lGJDCCShxhoZINu/lIaUUpRoA2gJQwgPd6rT7Dzmv5SGlFKUaANoCUMIeK8yCWaP/j+UhpRSlGgDaAlDCPrFF2iTBPq/lIaUUpRoA2gJQwi6PUMjPVEAQJSGlFKUaANoCUMI7Qch88prAECUhpRSlGgDaAlDCJ94OpzYVQXAlIaUUpRoA2gJQwjCmkzK+ofxv5SGlFKUaANoCUMIy3pfvFxz9j+UhpRSlGgDaAlDCICElqmqBw3AlIaUUpRoA2gJQwg2fbMavoX+P5SGlFKUaANoCUMIcNkq64cd87+UhpRSlGgDaAlDCLy8avkK1e4/lIaUUpRoA2gJQwi8vGr5CtXuP5SGlFKUaANoCUMIJ58oPYjt6z+UhpRSlGgDaAlDCA1XTzPNiSBAlIaUUpRoA2gJQwgWVt+CPNQSwJSGlFKUaANoCUMIMtH7Sw5yFECUhpRSlGgDaAlDCLexIW9xNxHAlIaUUpRoA2gJQwgdYOQCQEgPQJSGlFKUaANoCUMIsFqSxppe57+UhpRSlGgDaAlDCJrpPgbd3+Q/lIaUUpRoA2gJQwhdoFLsuPbvP5SGlFKUaANoCUMIXaBS7Lj27z+UhpRSlGgDaAlDCF2gUuy49u8/lIaUUpRoA2gJQwhSOlzNgvoVwJSGlFKUaANoCUMIHWDkAkBID0CUhpRSlGgDaAlDCB1g5AJASA9AlIaUUpRoA2gJQwiLJGg++j72v5SGlFKUaANoCUMIJUl1JU1u+D+UhpRSlGgDaAlDCIoKEl2ESPe/lIaUUpRoA2gJQwhOCf+HFPr6P5SGlFKUaANoCUMIX0qI+ry89L+UhpRSlGgDaAlDCB/7coHrivs/lIaUUpRoA2gJQwiKChJdhEj3v5SGlFKUaANoCUMITgn/hxT6+j+UhpRSlGgDaAlDCIskaD76Pva/lIaUUpRoA2gJQwglSXUlTW74P5SGlFKUaANoCUMI/fiVoW6FFcCUhpRSlGgDaAlDCAvav0IgIvW/lIaUUpRoA2gJQwg/McUdsSnnP5SGlFKUaANoCUMIPzHFHbEp5z+UhpRSlGgDaAlDCD8xxR2xKec/lIaUUpRoA2gJQwgL2r9CICL1v5SGlFKUaANoCUMIPzHFHbEp5z+UhpRSlGgDaAlDCD8xxR2xKec/lIaUUpRoA2gJQwg/McUdsSnnP5SGlFKUZS4=

$$$$
12
     RDKit          3D

 47 50  0  0  1  0  0  0  0  0999 V2000
   26.9470   15.3250    9.1860 C   0  0  0  0  0  0  0  0  0  0  0  0
   27.6320   14.0950    9.0140 C   0  0  0  0  0  0  0  0  0  0  0  0
   28.7000   14.0480    9.1690 H   0  0  0  0  0  0  0  0  0  0  0  0
   26.9220   12.9310    8.6410 C   0  0  0  0  0  0  0  0  0  0  0  0
   27.4460   11.9960    8.5080 H   0  0  0  0  0  0  0  0  0  0  0  0
   25.5210   12.9940    8.4420 C   0  0  0  0  0  0  0  0  0  0  0  0
   24.8260   14.2190    8.6190 C   0  0  0  0  0  0  0  0  0  0  0  0
   25.5440   15.3800    8.9820 C   0  0  0  0  0  0  0  0  0  0  0  0
   25.0210   16.3170    9.1050 H   0  0  0  0  0  0  0  0  0  0  0  0
   24.8500   11.8510    8.0940 O   0  0  0  0  0  0  0  0  0  0  0  0
   23.4360   11.7100    8.2520 C   0  0  0  0  0  0  0  0  0  0  0  0
   22.7180   13.0050    7.7980 C   0  0  0  0  0  0  0  0  0  0  0  0
   21.6740   12.9400    8.1030 H   0  0  0  0  0  0  0  0  0  0  0  0
   22.7760   13.0630    6.7110 H   0  0  0  0  0  0  0  0  0  0  0  0
   23.3110   14.3040    8.3820 C   0  0  2  0  0  0  0  0  0  0  0  0
   23.0360   15.4900    7.4390 C   0  0  0  0  0  0  0  0  0  0  0  0
   22.3290   16.4140    8.1240 N   0  0  0  0  0  0  0  0  0  0  0  0
   22.0880   15.9170    9.3720 C   0  0  0  0  0  0  0  0  0  0  0  0
   22.5740   14.7390    9.5680 N   0  0  0  0  0  0  0  0  0  0  0  0
   22.4630   14.1980   10.4140 H   0  0  0  0  0  0  0  0  0  0  0  0
   27.6390   16.5060    9.5380 C   0  0  0  0  0  0  0  0  0  0  0  0
   21.9330   17.7200    7.5940 C   0  0  0  0  0  0  0  0  0  0  0  0
   22.2760   17.8130    6.5640 H   0  0  0  0  0  0  0  0  0  0  0  0
   22.3810   18.5090    8.1990 H   0  0  0  0  0  0  0  0  0  0  0  0
   20.8470   17.8110    7.6250 H   0  0  0  0  0  0  0  0  0  0  0  0
   21.3210   16.6530   10.2630 N   0  0  0  0  0  0  0  0  0  0  0  0
   21.0940   16.2700   11.1700 H   0  0  0  0  0  0  0  0  0  0  0  0
   20.9900   17.5720   10.0050 H   0  0  0  0  0  0  0  0  0  0  0  0
   27.0450   17.4570   10.4030 C   0  0  0  0  0  0  0  0  0  0  0  0
   26.0630   17.2760   10.8140 H   0  0  0  0  0  0  0  0  0  0  0  0
   27.7420   18.6460   10.7270 C   0  0  0  0  0  0  0  0  0  0  0  0
   29.0290   18.9000   10.1880 C   0  0  0  0  0  0  0  0  0  0  0  0
   29.5540   19.8090   10.4410 H   0  0  0  0  0  0  0  0  0  0  0  0
   29.6220   17.9540    9.3150 C   0  0  0  0  0  0  0  0  0  0  0  0
   30.6020   18.1380    8.9010 H   0  0  0  0  0  0  0  0  0  0  0  0
   28.9240   16.7660    8.9880 C   0  0  0  0  0  0  0  0  0  0  0  0
   29.3720   16.0510    8.3140 H   0  0  0  0  0  0  0  0  0  0  0  0
   23.5150   15.6060    6.3060 O   0  0  0  0  0  0  0  0  0  0  0  0
   23.0150   10.5220    7.3590 C   0  0  0  0  0  0  0  0  0  0  0  0
   23.2670   10.7410    6.3210 H   0  0  0  0  0  0  0  0  0  0  0  0
   21.9400   10.3650    7.4470 H   0  0  0  0  0  0  0  0  0  0  0  0
   23.5410    9.6230    7.6790 H   0  0  0  0  0  0  0  0  0  0  0  0
   23.0750   11.3910    9.7230 C   0  0  0  0  0  0  0  0  0  0  0  0
   23.3700   12.2260   10.3590 H   0  0  0  0  0  0  0  0  0  0  0  0
   23.6010   10.4900   10.0390 H   0  0  0  0  0  0  0  0  0  0  0  0
   22.0000   11.2320    9.8070 H   0  0  0  0  0  0  0  0  0  0  0  0
   27.1330   19.6280   11.5960 Cl  0  0  0  0  0  0  0  0  0  0  0  0
  1  2  2  0
  1  8  1  0
  1 21  1  0
  2  3  1  0
  2  4  1  0
  4  5  1  0
  4  6  2  0
  6  7  1  0
  6 10  1  0
  7  8  2  0
  7 15  1  0
  8  9  1  0
 10 11  1  0
 11 12  1  0
 11 39  1  0
 11 43  1  0
 12 13  1  0
 12 14  1  0
 15 12  1  6
 15 16  1  0
 15 19  1  0
 16 17  1  0
 16 38  2  0
 17 18  1  0
 17 22  1  0
 18 19  2  0
 18 26  1  0
 19 20  1  0
 21 29  2  0
 21 36  1  0
 22 23  1  0
 22 24  1  0
 22 25  1  0
 26 27  1  0
 26 28  1  0
 29 30  1  0
 29 31  1  0
 31 32  2  0
 31 47  1  0
 32 33  1  0
 32 34  1  0
 34 35  1  0
 34 36  2  0
 36 37  1  0
 39 40  1  0
 39 41  1  0
 39 42  1  0
 43 44  1  0
 43 45  1  0
 43 46  1  0
M  CHG  1  19   1
M  END
>  <r_exp_dg>  (3) 
-10.4569

>  <experimental dG reference units>  (3) 
kcal/mol

>  <experimental dG reference field>  (3) 
r_exp_dg

>  <kJ/mol experimental dG>  (3) 
-43.7516696

>  <kcal/mol experimental dG>  (3) 
-10.4569

>  <AmberAM1BCCCache>  (3) 
gASV2AMAAAAAAABdlCiMFm51bXB5Ll9jb3JlLm11bHRpYXJyYXmUjAZzY2FsYXKUk5SMBW51bXB5lIwFZHR5cGWUk5SMAmY4lImIh5RSlChLA4wBPJROTk5K/////0r/////SwB0lGJDCKH8Vd2gmOC/lIaUUpRoA2gJQwj5sBVlG53jv5SGlFKUaANoCUMIJioRdujt/j+UhpRSlGgDaAlDCDEqnZYG+Pq/lIaUUpRoA2gJQwgRe7JZfoAAQJSGlFKUaANoCUMIuDRC9wZEAUCUhpRSlGgDaAlDCKQjN7D9FwbAlIaUUpRoA2gJQwjNJPK0MPnwv5SGlFKUaANoCUMIBew1em4y9z+UhpRSlGgDaAlDCG5CoxuxCA3AlIaUUpRoA2gJQwiJDyY92vL9P5SGlFKUaANoCUMI10s8ICSA87+UhpRSlGgDaAlDCKWoHySf8u8/lIaUUpRoA2gJQwilqB8kn/LvP5SGlFKUaANoCUMIEYvdZxwL7T+UhpRSlGgDaAlDCFipnbdwdyBAlIaUUpRoA2gJQwj1rZ84Kx0TwJSGlFKUaANoCUMImXS3PmdZFECUhpRSlGgDaAlDCAsT6tPQHxHAlIaUUpRoA2gJQwi7mM/hyKcPQJSGlFKUaANoCUMIhKcNtqr947+UhpRSlGgDaAlDCG7oA49SPOU/lIaUUpRoA2gJQwgasifTD5LvP5SGlFKUaANoCUMIGrIn0w+S7z+UhpRSlGgDaAlDCBqyJ9MPku8/lIaUUpRoA2gJQwh3mkMc9O4VwJSGlFKUaANoCUMIAaH2ektTD0CUhpRSlGgDaAlDCAGh9npLUw9AlIaUUpRoA2gJQwgMuBXYoE/1v5SGlFKUaANoCUMI5GJBkIyq/D+UhpRSlGgDaAlDCGDisSYPRc0/lIaUUpRoA2gJQwiwz6mNOl70v5SGlFKUaANoCUMIED0h1Mks/j+UhpRSlGgDaAlDCCKlBXq/EPa/lIaUUpRoA2gJQwiIetVFJrn7P5SGlFKUaANoCUMICIRpFbVi97+UhpRSlGgDaAlDCHbBkWbz5Pg/lIaUUpRoA2gJQwhQTbMVk/IVwJSGlFKUaANoCUMIilMX+1A89b+UhpRSlGgDaAlDCJq8kl+99uc/lIaUUpRoA2gJQwiavJJfvfbnP5SGlFKUaANoCUMImrySX7325z+UhpRSlGgDaAlDCIpTF/tQPPW/lIaUUpRoA2gJQwiavJJfvfbnP5SGlFKUaANoCUMImrySX7325z+UhpRSlGgDaAlDCJq8kl+99uc/lIaUUpRoA2gJQwgM/6k7Aqvov5SGlFKUZS4=

$$$$
13
     RDKit          3D

 48 51  0  0  1  0  0  0  0  0999 V2000
   26.9470   15.3250    9.1860 C   0  0  0  0  0  0  0  0  0  0  0  0
   27.6320   14.0950    9.0140 C   0  0  0  0  0  0  0  0  0  0  0  0
   28.7000   14.0480    9.1690 H   0  0  0  0  0  0  0  0  0  0  0  0
   26.9220   12.9310    8.6410 C   0  0  0  0  0  0  0  0  0  0  0  0
   27.4460   11.9960    8.5080 H   0  0  0  0  0  0  0  0  0  0  0  0
   25.5210   12.9940    8.4420 C   0  0  0  0  0  0  0  0  0  0  0  0
   24.8260   14.2190    8.6190 C   0  0  0  0  0  0  0  0  0  0  0  0
   25.5440   15.3800    8.9820 C   0  0  0  0  0  0  0  0  0  0  0  0
   25.0210   16.3170    9.1050 H   0  0  0  0  0  0  0  0  0  0  0  0
   24.8500   11.8510    8.0940 O   0  0  0  0  0  0  0  0  0  0  0  0
   23.4360   11.7100    8.2520 C   0  0  0  0  0  0  0  0  0  0  0  0
   22.7180   13.0050    7.7980 C   0  0  0  0  0  0  0  0  0  0  0  0
   21.6740   12.9400    8.1030 H   0  0  0  0  0  0  0  0  0  0  0  0
   22.7760   13.0630    6.7110 H   0  0  0  0  0  0  0  0  0  0  0  0
   23.3110   14.3040    8.3820 C   0  0  2  0  0  0  0  0  0  0  0  0
   23.0360   15.4900    7.4390 C   0  0  0  0  0  0  0  0  0  0  0  0
   22.3290   16.4140    8.1240 N   0  0  0  0  0  0  0  0  0  0  0  0
   22.0880   15.9170    9.3720 C   0  0  0  0  0  0  0  0  0  0  0  0
   22.5740   14.7390    9.5680 N   0  0  0  0  0  0  0  0  0  0  0  0
   22.4630   14.1980   10.4140 H   0  0  0  0  0  0  0  0  0  0  0  0
   27.6390   16.5060    9.5380 C   0  0  0  0  0  0  0  0  0  0  0  0
   21.9330   17.7200    7.5940 C   0  0  0  0  0  0  0  0  0  0  0  0
   22.2760   17.8130    6.5640 H   0  0  0  0  0  0  0  0  0  0  0  0
   22.3810   18.5090    8.1990 H   0  0  0  0  0  0  0  0  0  0  0  0
   20.8470   17.8110    7.6250 H   0  0  0  0  0  0  0  0  0  0  0  0
   21.3210   16.6530   10.2630 N   0  0  0  0  0  0  0  0  0  0  0  0
   21.0940   16.2700   11.1700 H   0  0  0  0  0  0  0  0  0  0  0  0
   20.9900   17.5720   10.0050 H   0  0  0  0  0  0  0  0  0  0  0  0
   27.0450   17.4570   10.4030 C   0  0  0  0  0  0  0  0  0  0  0  0
   26.0630   17.2760   10.8140 H   0  0  0  0  0  0  0  0  0  0  0  0
   27.7420   18.6460   10.7270 C   0  0  0  0  0  0  0  0  0  0  0  0
   29.0290   18.9000   10.1880 C   0  0  0  0  0  0  0  0  0  0  0  0
   29.5540   19.8090   10.4410 H   0  0  0  0  0  0  0  0  0  0  0  0
   29.6220   17.9540    9.3150 C   0  0  0  0  0  0  0  0  0  0  0  0
   30.6020   18.1380    8.9010 H   0  0  0  0  0  0  0  0  0  0  0  0
   28.9240   16.7660    8.9880 C   0  0  0  0  0  0  0  0  0  0  0  0
   29.3720   16.0510    8.3140 H   0  0  0  0  0  0  0  0  0  0  0  0
   23.5150   15.6060    6.3060 O   0  0  0  0  0  0  0  0  0  0  0  0
   23.0150   10.5220    7.3590 C   0  0  0  0  0  0  0  0  0  0  0  0
   23.2670   10.7410    6.3210 H   0  0  0  0  0  0  0  0  0  0  0  0
   21.9400   10.3650    7.4470 H   0  0  0  0  0  0  0  0  0  0  0  0
   23.5410    9.6230    7.6790 H   0  0  0  0  0  0  0  0  0  0  0  0
   23.0750   11.3910    9.7230 C   0  0  0  0  0  0  0  0  0  0  0  0
   23.3700   12.2260   10.3590 H   0  0  0  0  0  0  0  0  0  0  0  0
   23.6010   10.4900   10.0390 H   0  0  0  0  0  0  0  0  0  0  0  0
   22.0000   11.2320    9.8070 H   0  0  0  0  0  0  0  0  0  0  0  0
   27.1330   19.6280   11.5960 C   0  0  0  0  0  0  0  0  0  0  0  0
   26.6290   20.3930   12.3010 N   0  0  0  0  0  0  0  0  0  0  0  0
  1  2  2  0
  1  8  1  0
  1 21  1  0
  2  3  1  0
  2  4  1  0
  4  5  1  0
  4  6  2  0
  6  7  1  0
  6 10  1  0
  7  8  2  0
  7 15  1  0
  8  9  1  0
 10 11  1  0
 11 12  1  0
 11 39  1  0
 11 43  1  0
 12 13  1  0
 12 14  1  0
 15 12  1  6
 15 16  1  0
 15 19  1  0
 16 17  1  0
 16 38  2  0
 17 18  1  0
 17 22  1  0
 18 19  2  0
 18 26  1  0
 19 20  1  0
 21 29  2  0
 21 36  1  0
 22 23  1  0
 22 24  1  0
 22 25  1  0
 26 27  1  0
 26 28  1  0
 29 30  1  0
 29 31  1  0
 31 32  2  0
 31 47  1  0
 32 33  1  0
 32 34  1  0
 34 35  1  0
 34 36  2  0
 36 37  1  0
 39 40  1  0
 39 41  1  0
 39 42  1  0
 43 44  1  0
 43 45  1  0
 43 46  1  0
 47 48  3  0
M  CHG  1  19   1
M  END
>  <r_exp_dg>  (4) 
-9.64326

>  <experimental dG reference units>  (4) 
kcal/mol

>  <experimental dG reference field>  (4) 
r_exp_dg

>  <kJ/mol experimental dG>  (4) 
-40.34739984

>  <kcal/mol experimental dG>  (4) 
-9.64326

>  <AmberAM1BCCCache>  (4) 
gASV6wMAAAAAAABdlCiMFm51bXB5Ll9jb3JlLm11bHRpYXJyYXmUjAZzY2FsYXKUk5SMBW51bXB5lIwFZHR5cGWUk5SMAmY4lImIh5RSlChLA4wBPJROTk5K/////0r/////SwB0lGJDCDiNHsZVLNu/lIaUUpRoA2gJQwjRPS6+1yXov5SGlFKUaANoCUMIuK/Yhp68/j+UhpRSlGgDaAlDCNPmDU9lhfi/lIaUUpRoA2gJQwg2QNiNtU8AQJSGlFKUaANoCUMIycOAYSva+T+UhpRSlGgDaAlDCLGgSUXbpAPAlIaUUpRoA2gJQwid+/X0wsnqv5SGlFKUaANoCUMISQ4pXQX3+j+UhpRSlGgDaAlDCHE9B0pBxQ/AlIaUUpRoA2gJQwjVmXGlSJH9P5SGlFKUaANoCUMIR8Z0D26x87+UhpRSlGgDaAlDCFUvM4+KevE/lIaUUpRoA2gJQwhVLzOPinrxP5SGlFKUaANoCUMImRrdG7Jg5z+UhpRSlGgDaAlDCH+WEzh9lSBAlIaUUpRoA2gJQwiPzG20fSkTwJSGlFKUaANoCUMI506jP4CVFECUhpRSlGgDaAlDCAQ0env/ExHAlIaUUpRoA2gJQwiTn43uaFgQQJSGlFKUaANoCUMIRkc2bUjF57+UhpRSlGgDaAlDCKXgglLdmuU/lIaUUpRoA2gJQwhl/PTNMrDvP5SGlFKUaANoCUMIZfz0zTKw7z+UhpRSlGgDaAlDCGX89M0ysO8/lIaUUpRoA2gJQwjktzCCWAcWwJSGlFKUaANoCUMIbWGYV8pSD0CUhpRSlGgDaAlDCG1hmFfKUg9AlIaUUpRoA2gJQwjfwsXaHg3tv5SGlFKUaANoCUMIdegIoUJ5/D+UhpRSlGgDaAlDCF2F2IQBHDC/lIaUUpRoA2gJQwg+393ncOvrv5SGlFKUaANoCUMIocLo5H/7/T+UhpRSlGgDaAlDCI7rkaYdVfi/lIaUUpRoA2gJQwik9pSna+j7P5SGlFKUaANoCUMIOWt+4Y4987+UhpRSlGgDaAlDCPJZadWK8vc/lIaUUpRoA2gJQwjsa4GR5f4VwJSGlFKUaANoCUMItuwpI8kz9L+UhpRSlGgDaAlDCGRJpc67kuY/lIaUUpRoA2gJQwhkSaXOu5LmP5SGlFKUaANoCUMIZEmlzruS5j+UhpRSlGgDaAlDCLbsKSPJM/S/lIaUUpRoA2gJQwhkSaXOu5LmP5SGlFKUaANoCUMIZEmlzruS5j+UhpRSlGgDaAlDCGRJpc67kuY/lIaUUpRoA2gJQwjKQ8RowkAEQJSGlFKUaANoCUMIhYj7A3HRDsCUhpRSlGUu

$$$$
14
     RDKit          3D

 51 54  0  0  1  0  0  0  0  0999 V2000
   26.9470   15.3250    9.1860 C   0  0  0  0  0  0  0  0  0  0  0  0
   27.6320   14.0950    9.0140 C   0  0  0  0  0  0  0  0  0  0  0  0
   28.7000   14.0480    9.1690 H   0  0  0  0  0  0  0  0  0  0  0  0
   26.9220   12.9310    8.6410 C   0  0  0  0  0  0  0  0  0  0  0  0
   27.4460   11.9960    8.5080 H   0  0  0  0  0  0  0  0  0  0  0  0
   25.5210   12.9940    8.4420 C   0  0  0  0  0  0  0  0  0  0  0  0
   24.8260   14.2190    8.6190 C   0  0  0  0  0  0  0  0  0  0  0  0
   25.5440   15.3800    8.9820 C   0  0  0  0  0  0  0  0  0  0  0  0
   25.0210   16.3170    9.1050 H   0  0  0  0  0  0  0  0  0  0  0  0
   24.8500   11.8510    8.0940 O   0  0  0  0  0  0  0  0  0  0  0  0
   23.4360   11.7100    8.2520 C   0  0  0  0  0  0  0  0  0  0  0  0
   22.7180   13.0050    7.7980 C   0  0  0  0  0  0  0  0  0  0  0  0
   21.6740   12.9400    8.1030 H   0  0  0  0  0  0  0  0  0  0  0  0
   22.7760   13.0630    6.7110 H   0  0  0  0  0  0  0  0  0  0  0  0
   23.3110   14.3040    8.3820 C   0  0  2  0  0  0  0  0  0  0  0  0
   23.0360   15.4900    7.4390 C   0  0  0  0  0  0  0  0  0  0  0  0
   22.3290   16.4140    8.1240 N   0  0  0  0  0  0  0  0  0  0  0  0
   22.0880   15.9170    9.3720 C   0  0  0  0  0  0  0  0  0  0  0  0
   22.5740   14.7390    9.5680 N   0  0  0  0  0  0  0  0  0  0  0  0
   22.4630   14.1980   10.4140 H   0  0  0  0  0  0  0  0  0  0  0  0
   27.6390   16.5060    9.5380 C   0  0  0  0  0  0  0  0  0  0  0  0
   21.9330   17.7200    7.5940 C   0  0  0  0  0  0  0  0  0  0  0  0
   22.2760   17.8130    6.5640 H   0  0  0  0  0  0  0  0  0  0  0  0
   22.3810   18.5090    8.1990 H   0  0  0  0  0  0  0  0  0  0  0  0
   20.8470   17.8110    7.6250 H   0  0  0  0  0  0  0  0  0  0  0  0
   21.3210   16.6530   10.2630 N   0  0  0  0  0  0  0  0  0  0  0  0
   21.0940   16.2700   11.1700 H   0  0  0  0  0  0  0  0  0  0  0  0
   20.9900   17.5720   10.0050 H   0  0  0  0  0  0  0  0  0  0  0  0
   27.0450   17.4570   10.4030 C   0  0  0  0  0  0  0  0  0  0  0  0
   26.0630   17.2760   10.8140 H   0  0  0  0  0  0  0  0  0  0  0  0
   27.7420   18.6460   10.7270 C   0  0  0  0  0  0  0  0  0  0  0  0
   29.0290   18.9000   10.1880 C   0  0  0  0  0  0  0  0  0  0  0  0
   29.5540   19.8090   10.4410 H   0  0  0  0  0  0  0  0  0  0  0  0
   29.6220   17.9540    9.3150 C   0  0  0  0  0  0  0  0  0  0  0  0
   30.6020   18.1380    8.9010 H   0  0  0  0  0  0  0  0  0  0  0  0
   28.9240   16.7660    8.9880 C   0  0  0  0  0  0  0  0  0  0  0  0
   29.3720   16.0510    8.3140 H   0  0  0  0  0  0  0  0  0  0  0  0
   23.5150   15.6060    6.3060 O   0  0  0  0  0  0  0  0  0  0  0  0
   23.0150   10.5220    7.3590 C   0  0  0  0  0  0  0  0  0  0  0  0
   23.2670   10.7410    6.3210 H   0  0  0  0  0  0  0  0  0  0  0  0
   21.9400   10.3650    7.4470 H   0  0  0  0  0  0  0  0  0  0  0  0
   23.5410    9.6230    7.6790 H   0  0  0  0  0  0  0  0  0  0  0  0
   23.0750   11.3910    9.7230 C   0  0  0  0  0  0  0  0  0  0  0  0
   23.3700   12.2260   10.3590 H   0  0  0  0  0  0  0  0  0  0  0  0
   23.6010   10.4900   10.0390 H   0  0  0  0  0  0  0  0  0  0  0  0
   22.0000   11.2320    9.8070 H   0  0  0  0  0  0  0  0  0  0  0  0
   27.1410   19.6160   11.5850 O   0  0  0  0  0  0  0  0  0  0  0  0
   27.9590   20.7470   11.8850 C   0  0  0  0  0  0  0  0  0  0  0  0
   27.4150   21.4250   12.5430 H   0  0  0  0  0  0  0  0  0  0  0  0
   28.2170   21.2640   10.9610 H   0  0  0  0  0  0  0  0  0  0  0  0
   28.8710   20.4140   12.3810 H   0  0  0  0  0  0  0  0  0  0  0  0
  1  2  2  0
  1  8  1  0
  1 21  1  0
  2  3  1  0
  2  4  1  0
  4  5  1  0
  4  6  2  0
  6  7  1  0
  6 10  1  0
  7  8  2  0
  7 15  1  0
  8  9  1  0
 10 11  1  0
 11 12  1  0
 11 39  1  0
 11 43  1  0
 12 13  1  0
 12 14  1  0
 15 12  1  6
 15 16  1  0
 15 19  1  0
 16 17  1  0
 16 38  2  0
 17 18  1  0
 17 22  1  0
 18 19  2  0
 18 26  1  0
 19 20  1  0
 21 29  2  0
 21 36  1  0
 22 23  1  0
 22 24  1  0
 22 25  1  0
 26 27  1  0
 26 28  1  0
 29 30  1  0
 29 31  1  0
 31 32  2  0
 31 47  1  0
 32 33  1  0
 32 34  1  0
 34 35  1  0
 34 36  2  0
 36 37  1  0
 39 40  1  0
 39 41  1  0
 39 42  1  0
 43 44  1  0
 43 45  1  0
 43 46  1  0
 47 48  1  0
 48 49  1  0
 48 50  1  0
 48 51  1  0
M  CHG  1  19   1
M  END
>  <r_exp_dg>  (5) 
-9.83624

>  <experimental dG reference units>  (5) 
kcal/mol

>  <experimental dG reference field>  (5) 
r_exp_dg

>  <kJ/mol experimental dG>  (5) 
-41.15482816

>  <kcal/mol experimental dG>  (5) 
-9.83624

>  <AmberAM1BCCCache>  (5) 
gASVJAQAAAAAAABdlCiMFm51bXB5Ll9jb3JlLm11bHRpYXJyYXmUjAZzY2FsYXKUk5SMBW51bXB5lIwFZHR5cGWUk5SMAmY4lImIh5RSlChLA4wBPJROTk5K/////0r/////SwB0lGJDCKyd0nL08t6/lIaUUpRoA2gJQwio47h50r/jv5SGlFKUaANoCUMI95MXJl28/j+UhpRSlGgDaAlDCBK65nHxafu/lIaUUpRoA2gJQwj6r7WxuGcAQJSGlFKUaANoCUMIxmydiRELAUCUhpRSlGgDaAlDCE/wX3WrIAbAlIaUUpRoA2gJQwgGxh/RFLrwv5SGlFKUaANoCUMIYEw0e3Jh9z+UhpRSlGgDaAlDCEESJBsv8QzAlIaUUpRoA2gJQwhZeSztTsH9P5SGlFKUaANoCUMICOI1cK+x87+UhpRSlGgDaAlDCBEorqkSqfA/lIaUUpRoA2gJQwgRKK6pEqnwP5SGlFKUaANoCUMIwnRSYLfG6z+UhpRSlGgDaAlDCGR1vTdRfSBAlIaUUpRoA2gJQwjfFWA4ahETwJSGlFKUaANoCUMIeQ2NTRxdFECUhpRSlGgDaAlDCCt6FMUbHBHAlIaUUpRoA2gJQwg2z/5W634PQJSGlFKUaANoCUMIjZOjOWYk1b+UhpRSlGgDaAlDCOa4uLRr+eQ/lIaUUpRoA2gJQwjR6UNcQJrvP5SGlFKUaANoCUMI0elDXECa7z+UhpRSlGgDaAlDCNHpQ1xAmu8/lIaUUpRoA2gJQwhoAI33UPcVwJSGlFKUaANoCUMI8dOCrqNOD0CUhpRSlGgDaAlDCPHTgq6jTg9AlIaUUpRoA2gJQwg6DlsGo9kAwJSGlFKUaANoCUMI6+UHE4N3+z+UhpRSlGgDaAlDCFaub3WKmfk/lIaUUpRoA2gJQwhdjOojpjz9v5SGlFKUaANoCUMILa3X+N66/T+UhpRSlGgDaAlDCKipB8TC2/G/lIaUUpRoA2gJQwiu9b82lNb6P5SGlFKUaANoCUMITHaCi/Qd/r+UhpRSlGgDaAlDCFA2zOLAQvg/lIaUUpRoA2gJQwg5tXMV0uYVwJSGlFKUaANoCUMIjfXaJSn19L+UhpRSlGgDaAlDCKLbbXyvWOc/lIaUUpRoA2gJQwii2218r1jnP5SGlFKUaANoCUMIotttfK9Y5z+UhpRSlGgDaAlDCI312iUp9fS/lIaUUpRoA2gJQwii2218r1jnP5SGlFKUaANoCUMIotttfK9Y5z+UhpRSlGgDaAlDCKLbbXyvWOc/lIaUUpRoA2gJQwiF80niACsOwJSGlFKUaANoCUMId74pB1Pf9D+UhpRSlGgDaAlDCAwlpSaXB+M/lIaUUpRoA2gJQwgMJaUmlwfjP5SGlFKUaANoCUMIDCWlJpcH4z+UhpRSlGUu

$$$$
15
     RDKit          3D

 51 54  0  0  1  0  0  0  0  0999 V2000
   26.9470   15.3250    9.1860 C   0  0  0  0  0  0  0  0  0  0  0  0
   27.6320   14.0950    9.0140 C   0  0  0  0  0  0  0  0  0  0  0  0
   28.7000   14.0480    9.1690 H   0  0  0  0  0  0  0  0  0  0  0  0
   26.9220   12.9310    8.6410 C   0  0  0  0  0  0  0  0  0  0  0  0
   27.4460   11.9960    8.5080 H   0  0  0  0  0  0  0  0  0  0  0  0
   25.5210   12.9940    8.4420 C   0  0  0  0  0  0  0  0  0  0  0  0
   24.8260   14.2190    8.6190 C   0  0  0  0  0  0  0  0  0  0  0  0
   25.5440   15.3800    8.9820 C   0  0  0  0  0  0  0  0  0  0  0  0
   25.0210   16.3170    9.1050 H   0  0  0  0  0  0  0  0  0  0  0  0
   24.8500   11.8510    8.0940 O   0  0  0  0  0  0  0  0  0  0  0  0
   23.4360   11.7100    8.2520 C   0  0  0  0  0  0  0  0  0  0  0  0
   22.7180   13.0050    7.7980 C   0  0  0  0  0  0  0  0  0  0  0  0
   21.6740   12.9400    8.1030 H   0  0  0  0  0  0  0  0  0  0  0  0
   22.7760   13.0630    6.7110 H   0  0  0  0  0  0  0  0  0  0  0  0
   23.3110   14.3040    8.3820 C   0  0  2  0  0  0  0  0  0  0  0  0
   23.0360   15.4900    7.4390 C   0  0  0  0  0  0  0  0  0  0  0  0
   22.3290   16.4140    8.1240 N   0  0  0  0  0  0  0  0  0  0  0  0
   22.0880   15.9170    9.3720 C   0  0  0  0  0  0  0  0  0  0  0  0
   22.5740   14.7390    9.5680 N   0  0  0  0  0  0  0  0  0  0  0  0
   22.4630   14.1980   10.4140 H   0  0  0  0  0  0  0  0  0  0  0  0
   27.6390   16.5060    9.5380 C   0  0  0  0  0  0  0  0  0  0  0  0
   21.9330   17.7200    7.5940 C   0  0  0  0  0  0  0  0  0  0  0  0
   22.2760   17.8130    6.5640 H   0  0  0  0  0  0  0  0  0  0  0  0
   22.3810   18.5090    8.1990 H   0  0  0  0  0  0  0  0  0  0  0  0
   20.8470   17.8110    7.6250 H   0  0  0  0  0  0  0  0  0  0  0  0
   21.3210   16.6530   10.2630 N   0  0  0  0  0  0  0  0  0  0  0  0
   21.0940   16.2700   11.1700 H   0  0  0  0  0  0  0  0  0  0  0  0
   20.9900   17.5720   10.0050 H   0  0  0  0  0  0  0  0  0  0  0  0
   27.3590   17.1670   10.7590 C   0  0  0  0  0  0  0  0  0  0  0  0
   26.6250   16.7610   11.4380 H   0  0  0  0  0  0  0  0  0  0  0  0
   28.0440   18.3620   11.0860 C   0  0  0  0  0  0  0  0  0  0  0  0
   27.8330   18.8610   12.0200 H   0  0  0  0  0  0  0  0  0  0  0  0
   29.0060   18.9100   10.1990 C   0  0  0  0  0  0  0  0  0  0  0  0
   29.5250   19.8220   10.4560 H   0  0  0  0  0  0  0  0  0  0  0  0
   29.2810   18.2560    8.9720 C   0  0  0  0  0  0  0  0  0  0  0  0
   30.0130   18.6650    8.2920 H   0  0  0  0  0  0  0  0  0  0  0  0
   28.5940   17.0620    8.6430 C   0  0  0  0  0  0  0  0  0  0  0  0
   28.8620   16.4110    7.4010 O   0  0  0  0  0  0  0  0  0  0  0  0
   29.6890   17.1480    6.5000 C   0  0  0  0  0  0  0  0  0  0  0  0
   29.8350   16.5710    5.5860 H   0  0  0  0  0  0  0  0  0  0  0  0
   30.6550   17.3400    6.9660 H   0  0  0  0  0  0  0  0  0  0  0  0
   29.2070   18.0950    6.2580 H   0  0  0  0  0  0  0  0  0  0  0  0
   23.5150   15.6060    6.3060 O   0  0  0  0  0  0  0  0  0  0  0  0
   23.0150   10.5220    7.3590 C   0  0  0  0  0  0  0  0  0  0  0  0
   23.2670   10.7410    6.3210 H   0  0  0  0  0  0  0  0  0  0  0  0
   21.9400   10.3650    7.4470 H   0  0  0  0  0  0  0  0  0  0  0  0
   23.5410    9.6230    7.6790 H   0  0  0  0  0  0  0  0  0  0  0  0
   23.0750   11.3910    9.7230 C   0  0  0  0  0  0  0  0  0  0  0  0
   23.3700   12.2260   10.3590 H   0  0  0  0  0  0  0  0  0  0  0  0
   23.6010   10.4900   10.0390 H   0  0  0  0  0  0  0  0  0  0  0  0
   22.0000   11.2320    9.8070 H   0  0  0  0  0  0  0  0  0  0  0  0
  1  2  2  0
  1  8  1  0
  1 21  1  0
  2  3  1  0
  2  4  1  0
  4  5  1  0
  4  6  2  0
  6  7  1  0
  6 10  1  0
  7  8  2  0
  7 15  1  0
  8  9  1  0
 10 11  1  0
 11 12  1  0
 11 44  1  0
 11 48  1  0
 12 13  1  0
 12 14  1  0
 15 12  1  6
 15 16  1  0
 15 19  1  0
 16 17  1  0
 16 43  2  0
 17 18  1  0
 17 22  1  0
 18 19  2  0
 18 26  1  0
 19 20  1  0
 21 29  2  0
 21 37  1  0
 22 23  1  0
 22 24  1  0
 22 25  1  0
 26 27  1  0
 26 28  1  0
 29 30  1  0
 29 31  1  0
 31 32  1  0
 31 33  2  0
 33 34  1  0
 33 35  1  0
 35 36  1  0
 35 37  2  0
 37 38  1  0
 38 39  1  0
 39 40  1  0
 39 41  1  0
 39 42  1  0
 44 45  1  0
 44 46  1  0
 44 47  1  0
 48 49  1  0
 48 50  1  0
 48 51  1  0
M  CHG  1  19   1
M  END
>  <r_exp_dg>  (6) 
-7.91744

>  <experimental dG reference units>  (6) 
kcal/mol

>  <experimental dG reference field>  (6) 
r_exp_dg

>  <kJ/mol experimental dG>  (6) 
-33.12656896

>  <kcal/mol experimental dG>  (6) 
-7.91744

>  <AmberAM1BCCCache>  (6) 
gASVJAQAAAAAAABdlCiMFm51bXB5Ll9jb3JlLm11bHRpYXJyYXmUjAZzY2FsYXKUk5SMBW51bXB5lIwFZHR5cGWUk5SMAmY4lImIh5RSlChLA4wBPJROTk5K/////0r/////SwB0lGJDCMWemuKZoda/lIaUUpRoA2gJQwgLUHR76n/lv5SGlFKUaANoCUMIntrh6oD8/T+UhpRSlGgDaAlDCHR+UHkmufu/lIaUUpRoA2gJQwiTzpY8EjgAQJSGlFKUaANoCUMIloroBXfjAECUhpRSlGgDaAlDCCLQUs1pYAbAlIaUUpRoA2gJQwhcnNt9jarsv5SGlFKUaANoCUMIGkxCH8l1+T+UhpRSlGgDaAlDCEvxgGT5OA3AlIaUUpRoA2gJQwhcqGL82PL9P5SGlFKUaANoCUMIerwHEJYf87+UhpRSlGgDaAlDCL/joFENku8/lIaUUpRoA2gJQwi/46BRDZLvP5SGlFKUaANoCUMIn89mRPtJ7D+UhpRSlGgDaAlDCBU6w2OUjyBAlIaUUpRoA2gJQwh7jFTg4+wSwJSGlFKUaANoCUMIzZqG7mZZFECUhpRSlGgDaAlDCJHxnnuJ7xDAlIaUUpRoA2gJQwiY7nXwOEcPQJSGlFKUaANoCUMIE22zElqN7r+UhpRSlGgDaAlDCJ0QdV7fnOU/lIaUUpRoA2gJQwg07agAfjHvP5SGlFKUaANoCUMINO2oAH4x7z+UhpRSlGgDaAlDCDTtqAB+Me8/lIaUUpRoA2gJQwgUc5NWBvsVwJSGlFKUaANoCUMIx+9WBic7D0CUhpRSlGgDaAlDCMfvVgYnOw9AlIaUUpRoA2gJQwjMfSnvCIrxv5SGlFKUaANoCUMIdjSuaS9n+j+UhpRSlGgDaAlDCHR+UHkmufu/lIaUUpRoA2gJQwihDo6tbOn7P5SGlFKUaANoCUMIKVqjtHhO77+UhpRSlGgDaAlDCKEOjq1s6fs/lIaUUpRoA2gJQwin4FdmLKIBwJSGlFKUaANoCUMIFhiWXN2I+z+UhpRSlGgDaAlDCMgPJioYyPc/lIaUUpRoA2gJQwgWQfGtxtMQwJSGlFKUaANoCUMIvujbviRB9T+UhpRSlGgDaAlDCKncawjdnuI/lIaUUpRoA2gJQwip3GsI3Z7iP5SGlFKUaANoCUMIqdxrCN2e4j+UhpRSlGgDaAlDCI8jQSTJFhbAlIaUUpRoA2gJQwgVvZxnLiT1v5SGlFKUaANoCUMI/lx/zWu25z+UhpRSlGgDaAlDCP5cf81rtuc/lIaUUpRoA2gJQwj+XH/Na7bnP5SGlFKUaANoCUMIFb2cZy4k9b+UhpRSlGgDaAlDCP5cf81rtuc/lIaUUpRoA2gJQwj+XH/Na7bnP5SGlFKUaANoCUMI/lx/zWu25z+UhpRSlGUu

$$$$
16
     RDKit          3D

 51 54  0  0  1  0  0  0  0  0999 V2000
   26.9470   15.3250    9.1860 C   0  0  0  0  0  0  0  0  0  0  0  0
   27.6320   14.0950    9.0140 C   0  0  0  0  0  0  0  0  0  0  0  0
   28.7000   14.0480    9.1690 H   0  0  0  0  0  0  0  0  0  0  0  0
   26.9220   12.9310    8.6410 C   0  0  0  0  0  0  0  0  0  0  0  0
   27.4460   11.9960    8.5080 H   0  0  0  0  0  0  0  0  0  0  0  0
   25.5210   12.9940    8.4420 C   0  0  0  0  0  0  0  0  0  0  0  0
   24.8260   14.2190    8.6190 C   0  0  0  0  0  0  0  0  0  0  0  0
   25.5440   15.3800    8.9820 C   0  0  0  0  0  0  0  0  0  0  0  0
   25.0210   16.3170    9.1050 H   0  0  0  0  0  0  0  0  0  0  0  0
   24.8500   11.8510    8.0940 O   0  0  0  0  0  0  0  0  0  0  0  0
   23.4360   11.7100    8.2520 C   0  0  0  0  0  0  0  0  0  0  0  0
   22.7180   13.0050    7.7980 C   0  0  0  0  0  0  0  0  0  0  0  0
   21.6740   12.9400    8.1030 H   0  0  0  0  0  0  0  0  0  0  0  0
   22.7760   13.0630    6.7110 H   0  0  0  0  0  0  0  0  0  0  0  0
   23.3110   14.3040    8.3820 C   0  0  2  0  0  0  0  0  0  0  0  0
   23.0360   15.4900    7.4390 C   0  0  0  0  0  0  0  0  0  0  0  0
   22.3290   16.4140    8.1240 N   0  0  0  0  0  0  0  0  0  0  0  0
   22.0880   15.9170    9.3720 C   0  0  0  0  0  0  0  0  0  0  0  0
   22.5740   14.7390    9.5680 N   0  0  0  0  0  0  0  0  0  0  0  0
   22.4630   14.1980   10.4140 H   0  0  0  0  0  0  0  0  0  0  0  0
   27.6390   16.5060    9.5380 C   0  0  0  0  0  0  0  0  0  0  0  0
   21.9330   17.7200    7.5940 C   0  0  0  0  0  0  0  0  0  0  0  0
   22.2760   17.8130    6.5640 H   0  0  0  0  0  0  0  0  0  0  0  0
   22.3810   18.5090    8.1990 H   0  0  0  0  0  0  0  0  0  0  0  0
   20.8470   17.8110    7.6250 H   0  0  0  0  0  0  0  0  0  0  0  0
   21.3210   16.6530   10.2630 N   0  0  0  0  0  0  0  0  0  0  0  0
   21.0940   16.2700   11.1700 H   0  0  0  0  0  0  0  0  0  0  0  0
   20.9900   17.5720   10.0050 H   0  0  0  0  0  0  0  0  0  0  0  0
   27.0450   17.4570   10.4030 C   0  0  0  0  0  0  0  0  0  0  0  0
   26.0630   17.2760   10.8140 H   0  0  0  0  0  0  0  0  0  0  0  0
   27.7420   18.6460   10.7270 C   0  0  0  0  0  0  0  0  0  0  0  0
   27.2890   19.3670   11.3910 H   0  0  0  0  0  0  0  0  0  0  0  0
   29.0290   18.9000   10.1880 C   0  0  0  0  0  0  0  0  0  0  0  0
   29.7230   20.1020   10.5230 O   0  0  0  0  0  0  0  0  0  0  0  0
   31.0090   20.2450    9.9180 C   0  0  0  0  0  0  0  0  0  0  0  0
   31.4560   21.1880   10.2330 H   0  0  0  0  0  0  0  0  0  0  0  0
   30.9040   20.2370    8.8330 H   0  0  0  0  0  0  0  0  0  0  0  0
   31.6490   19.4180   10.2270 H   0  0  0  0  0  0  0  0  0  0  0  0
   29.6220   17.9540    9.3150 C   0  0  0  0  0  0  0  0  0  0  0  0
   30.6020   18.1380    8.9010 H   0  0  0  0  0  0  0  0  0  0  0  0
   28.9240   16.7660    8.9880 C   0  0  0  0  0  0  0  0  0  0  0  0
   29.3720   16.0510    8.3140 H   0  0  0  0  0  0  0  0  0  0  0  0
   23.5150   15.6060    6.3060 O   0  0  0  0  0  0  0  0  0  0  0  0
   23.0150   10.5220    7.3590 C   0  0  0  0  0  0  0  0  0  0  0  0
   23.2670   10.7410    6.3210 H   0  0  0  0  0  0  0  0  0  0  0  0
   21.9400   10.3650    7.4470 H   0  0  0  0  0  0  0  0  0  0  0  0
   23.5410    9.6230    7.6790 H   0  0  0  0  0  0  0  0  0  0  0  0
   23.0750   11.3910    9.7230 C   0  0  0  0  0  0  0  0  0  0  0  0
   23.3700   12.2260   10.3590 H   0  0  0  0  0  0  0  0  0  0  0  0
   23.6010   10.4900   10.0390 H   0  0  0  0  0  0  0  0  0  0  0  0
   22.0000   11.2320    9.8070 H   0  0  0  0  0  0  0  0  0  0  0  0
  1  2  2  0
  1  8  1  0
  1 21  1  0
  2  3  1  0
  2  4  1  0
  4  5  1  0
  4  6  2  0
  6  7  1  0
  6 10  1  0
  7  8  2  0
  7 15  1  0
  8  9  1  0
 10 11  1  0
 11 12  1  0
 11 44  1  0
 11 48  1  0
 12 13  1  0
 12 14  1  0
 15 12  1  6
 15 16  1  0
 15 19  1  0
 16 17  1  0
 16 43  2  0
 17 18  1  0
 17 22  1  0
 18 19  2  0
 18 26  1  0
 19 20  1  0
 21 29  2  0
 21 41  1  0
 22 23  1  0
 22 24  1  0
 22 25  1  0
 26 27  1  0
 26 28  1  0
 29 30  1  0
 29 31  1  0
 31 32  1  0
 31 33  2  0
 33 34  1  0
 33 39  1  0
 34 35  1  0
 35 36  1  0
 35 37  1  0
 35 38  1  0
 39 40  1  0
 39 41  2  0
 41 42  1  0
 44 45  1  0
 44 46  1  0
 44 47  1  0
 48 49  1  0
 48 50  1  0
 48 51  1  0
M  CHG  1  19   1
M  END
>  <r_exp_dg>  (7) 
-7.05774

>  <experimental dG reference units>  (7) 
kcal/mol

>  <experimental dG reference field>  (7) 
r_exp_dg

>  <kJ/mol experimental dG>  (7) 
-29.529584160000002

>  <kcal/mol experimental dG>  (7) 
-7.05774

>  <AmberAM1BCCCache>  (7) 
gASVJAQAAAAAAABdlCiMFm51bXB5Ll9jb3JlLm11bHRpYXJyYXmUjAZzY2FsYXKUk5SMBW51bXB5lIwFZHR5cGWUk5SMAmY4lImIh5RSlChLA4wBPJROTk5K/////0r/////SwB0lGJDCH+ng3bMotO/lIaUUpRoA2gJQwiQepxG1ZXnv5SGlFKUaANoCUMI5KHv9KRb/j+UhpRSlGgDaAlDCAPdYivF1/m/lIaUUpRoA2gJQwjwtiGZXDcAQJSGlFKUaANoCUMIr4SiqrQtAECUhpRSlGgDaAlDCFIFwZNfMwXAlIaUUpRoA2gJQwhrlX+A2nzyv5SGlFKUaANoCUMIfWiYUONv9j+UhpRSlGgDaAlDCKYNel9nCQ3AlIaUUpRoA2gJQwjoauyuRIL+P5SGlFKUaANoCUMIefB1rrnw8r+UhpRSlGgDaAlDCNucYHnQne4/lIaUUpRoA2gJQwjbnGB50J3uP5SGlFKUaANoCUMIjHqaZZXm6z+UhpRSlGgDaAlDCMR01gVeiSBAlIaUUpRoA2gJQwioGtHdGtUSwJSGlFKUaANoCUMIzg3rBh5lFECUhpRSlGgDaAlDCHl39N89LBHAlIaUUpRoA2gJQwj31gBNg0YPQJSGlFKUaANoCUMIDHlnc4ie87+UhpRSlGgDaAlDCP/EsC7q2OQ/lIaUUpRoA2gJQwghM36Mns/vP5SGlFKUaANoCUMIITN+jJ7P7z+UhpRSlGgDaAlDCCEzfoyez+8/lIaUUpRoA2gJQwjl/k0oYfsVwJSGlFKUaANoCUMIJtjhYnE6D0CUhpRSlGgDaAlDCCbY4WJxOg9AlIaUUpRoA2gJQwhW0Av46F/uv5SGlFKUaANoCUMIHDIqYhub+D+UhpRSlGgDaAlDCAYK/FHV7QDAlIaUUpRoA2gJQwhaxU2Fi/H8P5SGlFKUaANoCUMIw3NfBh0d/D+UhpRSlGgDaAlDCEjxYVIVKw7AlIaUUpRoA2gJQwirx31+4q70P5SGlFKUaANoCUMIAvMLfgP+4z+UhpRSlGgDaAlDCALzC34D/uM/lIaUUpRoA2gJQwgC8wt+A/7jP5SGlFKUaANoCUMIBgr8UdXtAMCUhpRSlGgDaAlDCFrFTYWL8fw/lIaUUpRoA2gJQwhW0Av46F/uv5SGlFKUaANoCUMIHDIqYhub+D+UhpRSlGgDaAlDCI+9h/xMhhXAlIaUUpRoA2gJQwhZ7IaumSX1v5SGlFKUaANoCUMIpAw3Rr4i5z+UhpRSlGgDaAlDCKQMN0a+Iuc/lIaUUpRoA2gJQwikDDdGviLnP5SGlFKUaANoCUMIWeyGrpkl9b+UhpRSlGgDaAlDCKQMN0a+Iuc/lIaUUpRoA2gJQwikDDdGviLnP5SGlFKUaANoCUMIpAw3Rr4i5z+UhpRSlGUu

$$$$
17
     RDKit          3D

 47 50  0  0  1  0  0  0  0  0999 V2000
   26.9470   15.3250    9.1860 C   0  0  0  0  0  0  0  0  0  0  0  0
   27.6320   14.0950    9.0140 C   0  0  0  0  0  0  0  0  0  0  0  0
   28.7000   14.0480    9.1690 H   0  0  0  0  0  0  0  0  0  0  0  0
   26.9220   12.9310    8.6410 C   0  0  0  0  0  0  0  0  0  0  0  0
   27.4460   11.9960    8.5080 H   0  0  0  0  0  0  0  0  0  0  0  0
   25.5210   12.9940    8.4420 C   0  0  0  0  0  0  0  0  0  0  0  0
   24.8260   14.2190    8.6190 C   0  0  0  0  0  0  0  0  0  0  0  0
   25.5440   15.3800    8.9820 C   0  0  0  0  0  0  0  0  0  0  0  0
   25.0210   16.3170    9.1050 H   0  0  0  0  0  0  0  0  0  0  0  0
   24.8500   11.8510    8.0940 O   0  0  0  0  0  0  0  0  0  0  0  0
   23.4360   11.7100    8.2520 C   0  0  0  0  0  0  0  0  0  0  0  0
   22.7180   13.0050    7.7980 C   0  0  0  0  0  0  0  0  0  0  0  0
   21.6740   12.9400    8.1030 H   0  0  0  0  0  0  0  0  0  0  0  0
   22.7760   13.0630    6.7110 H   0  0  0  0  0  0  0  0  0  0  0  0
   23.3110   14.3040    8.3820 C   0  0  2  0  0  0  0  0  0  0  0  0
   23.0360   15.4900    7.4390 C   0  0  0  0  0  0  0  0  0  0  0  0
   22.3290   16.4140    8.1240 N   0  0  0  0  0  0  0  0  0  0  0  0
   22.0880   15.9170    9.3720 C   0  0  0  0  0  0  0  0  0  0  0  0
   22.5740   14.7390    9.5680 N   0  0  0  0  0  0  0  0  0  0  0  0
   22.4630   14.1980   10.4140 H   0  0  0  0  0  0  0  0  0  0  0  0
   27.6390   16.5060    9.5380 C   0  0  0  0  0  0  0  0  0  0  0  0
   21.9330   17.7200    7.5940 C   0  0  0  0  0  0  0  0  0  0  0  0
   22.2760   17.8130    6.5640 H   0  0  0  0  0  0  0  0  0  0  0  0
   22.3810   18.5090    8.1990 H   0  0  0  0  0  0  0  0  0  0  0  0
   20.8470   17.8110    7.6250 H   0  0  0  0  0  0  0  0  0  0  0  0
   21.3210   16.6530   10.2630 N   0  0  0  0  0  0  0  0  0  0  0  0
   21.0940   16.2700   11.1700 H   0  0  0  0  0  0  0  0  0  0  0  0
   20.9900   17.5720   10.0050 H   0  0  0  0  0  0  0  0  0  0  0  0
   27.0450   17.4570   10.4030 C   0  0  0  0  0  0  0  0  0  0  0  0
   26.0630   17.2760   10.8140 H   0  0  0  0  0  0  0  0  0  0  0  0
   27.7420   18.6460   10.7270 C   0  0  0  0  0  0  0  0  0  0  0  0
   29.0290   18.9000   10.1880 C   0  0  0  0  0  0  0  0  0  0  0  0
   29.5540   19.8090   10.4410 H   0  0  0  0  0  0  0  0  0  0  0  0
   29.6220   17.9540    9.3150 C   0  0  0  0  0  0  0  0  0  0  0  0
   31.2140   18.2530    8.6430 Cl  0  0  0  0  0  0  0  0  0  0  0  0
   28.9240   16.7660    8.9880 C   0  0  0  0  0  0  0  0  0  0  0  0
   29.3720   16.0510    8.3140 H   0  0  0  0  0  0  0  0  0  0  0  0
   23.5150   15.6060    6.3060 O   0  0  0  0  0  0  0  0  0  0  0  0
   23.0150   10.5220    7.3590 C   0  0  0  0  0  0  0  0  0  0  0  0
   23.2670   10.7410    6.3210 H   0  0  0  0  0  0  0  0  0  0  0  0
   21.9400   10.3650    7.4470 H   0  0  0  0  0  0  0  0  0  0  0  0
   23.5410    9.6230    7.6790 H   0  0  0  0  0  0  0  0  0  0  0  0
   23.0750   11.3910    9.7230 C   0  0  0  0  0  0  0  0  0  0  0  0
   23.3700   12.2260   10.3590 H   0  0  0  0  0  0  0  0  0  0  0  0
   23.6010   10.4900   10.0390 H   0  0  0  0  0  0  0  0  0  0  0  0
   22.0000   11.2320    9.8070 H   0  0  0  0  0  0  0  0  0  0  0  0
   27.1330   19.6280   11.5960 Cl  0  0  0  0  0  0  0  0  0  0  0  0
  1  2  2  0
  1  8  1  0
  1 21  1  0
  2  3  1  0
  2  4  1  0
  4  5  1  0
  4  6  2  0
  6  7  1  0
  6 10  1  0
  7  8  2  0
  7 15  1  0
  8  9  1  0
 10 11  1  0
 11 12  1  0
 11 39  1  0
 11 43  1  0
 12 13  1  0
 12 14  1  0
 15 12  1  6
 15 16  1  0
 15 19  1  0
 16 17  1  0
 16 38  2  0
 17 18  1  0
 17 22  1  0
 18 19  2  0
 18 26  1  0
 19 20  1  0
 21 29  2  0
 21 36  1  0
 22 23  1  0
 22 24  1  0
 22 25  1  0
 26 27  1  0
 26 28  1  0
 29 30  1  0
 29 31  1  0
 31 32  2  0
 31 47  1  0
 32 33  1  0
 32 34  1  0
 34 35  1  0
 34 36  2  0
 36 37  1  0
 39 40  1  0
 39 41  1  0
 39 42  1  0
 43 44  1  0
 43 45  1  0
 43 46  1  0
M  CHG  1  19   1
M  END
>  <r_exp_dg>  (8) 
-10.3651

>  <experimental dG reference units>  (8) 
kcal/mol

>  <experimental dG reference field>  (8) 
r_exp_dg

>  <kJ/mol experimental dG>  (8) 
-43.3675784

>  <kcal/mol experimental dG>  (8) 
-10.3651

>  <AmberAM1BCCCache>  (8) 
gASV2AMAAAAAAABdlCiMFm51bXB5Ll9jb3JlLm11bHRpYXJyYXmUjAZzY2FsYXKUk5SMBW51bXB5lIwFZHR5cGWUk5SMAmY4lImIh5RSlChLA4wBPJROTk5K/////0r/////SwB0lGJDCNofcAdgeeK/lIaUUpRoA2gJQwjwDGCpfjrjv5SGlFKUaANoCUMI5gBwK+/u/j+UhpRSlGgDaAlDCHFTPuH/9vq/lIaUUpRoA2gJQwgT5J+IJZkAQJSGlFKUaANoCUMIXJtt+tF0AUCUhpRSlGgDaAlDCP+8C60y5wXAlIaUUpRoA2gJQwj4YKNdCzfwv5SGlFKUaANoCUMICb4Q2Lxj9z+UhpRSlGgDaAlDCA7X88AtCA3AlIaUUpRoA2gJQwhI5oTy4PP9P5SGlFKUaANoCUMIGXXdah1/87+UhpRSlGgDaAlDCLSorBt6EvA/lIaUUpRoA2gJQwi0qKwbehLwP5SGlFKUaANoCUMIjjib0ikN7T+UhpRSlGgDaAlDCDCESY6RdyBAlIaUUpRoA2gJQwii+gm3xQQTwJSGlFKUaANoCUMIGyku1rplFECUhpRSlGgDaAlDCKFYDs/WTxHAlIaUUpRoA2gJQwgbBH88TKgPQJSGlFKUaANoCUMIgUjBMxNj2r+UhpRSlGgDaAlDCGGfyajQ3eQ/lIaUUpRoA2gJQwiCDZcGhdTvP5SGlFKUaANoCUMIgg2XBoXU7z+UhpRSlGgDaAlDCIINlwaF1O8/lIaUUpRoA2gJQwiY4wpZxPoVwJSGlFKUaANoCUMIYQym1c5TD0CUhpRSlGgDaAlDCGEMptXOUw9AlIaUUpRoA2gJQwiRwtzpa4j2v5SGlFKUaANoCUMIAla4UuWJ+z+UhpRSlGgDaAlDCGerS8kmENU/lIaUUpRoA2gJQwghB9feXMzzv5SGlFKUaANoCUMIceZhtAGBAECUhpRSlGgDaAlDCGerS8kmENU/lIaUUpRoA2gJQwjtbQTeRofnv5SGlFKUaANoCUMIkcLc6WuI9r+UhpRSlGgDaAlDCAJWuFLlifs/lIaUUpRoA2gJQwjOmDx+P+YVwJSGlFKUaANoCUMIy3y4RUo79b+UhpRSlGgDaAlDCF1lzHISKeg/lIaUUpRoA2gJQwhdZcxyEinoP5SGlFKUaANoCUMIXWXMchIp6D+UhpRSlGgDaAlDCMt8uEVKO/W/lIaUUpRoA2gJQwhdZcxyEinoP5SGlFKUaANoCUMIXWXMchIp6D+UhpRSlGgDaAlDCF1lzHISKeg/lIaUUpRoA2gJQwjtbQTeRofnv5SGlFKUZS4=

$$$$
18
     RDKit          3D

 51 54  0  0  1  0  0  0  0  0999 V2000
   26.9470   15.3250    9.1860 C   0  0  0  0  0  0  0  0  0  0  0  0
   27.6320   14.0950    9.0140 C   0  0  0  0  0  0  0  0  0  0  0  0
   28.7000   14.0480    9.1690 H   0  0  0  0  0  0  0  0  0  0  0  0
   26.9220   12.9310    8.6410 C   0  0  0  0  0  0  0  0  0  0  0  0
   27.4460   11.9960    8.5080 H   0  0  0  0  0  0  0  0  0  0  0  0
   25.5210   12.9940    8.4420 C   0  0  0  0  0  0  0  0  0  0  0  0
   24.8260   14.2190    8.6190 C   0  0  0  0  0  0  0  0  0  0  0  0
   25.5440   15.3800    8.9820 C   0  0  0  0  0  0  0  0  0  0  0  0
   25.0210   16.3170    9.1050 H   0  0  0  0  0  0  0  0  0  0  0  0
   24.8500   11.8510    8.0940 O   0  0  0  0  0  0  0  0  0  0  0  0
   23.4360   11.7100    8.2520 C   0  0  0  0  0  0  0  0  0  0  0  0
   22.7180   13.0050    7.7980 C   0  0  0  0  0  0  0  0  0  0  0  0
   21.6740   12.9400    8.1030 H   0  0  0  0  0  0  0  0  0  0  0  0
   22.7760   13.0630    6.7110 H   0  0  0  0  0  0  0  0  0  0  0  0
   23.3110   14.3040    8.3820 C   0  0  2  0  0  0  0  0  0  0  0  0
   23.0360   15.4900    7.4390 C   0  0  0  0  0  0  0  0  0  0  0  0
   22.3290   16.4140    8.1240 N   0  0  0  0  0  0  0  0  0  0  0  0
   22.0880   15.9170    9.3720 C   0  0  0  0  0  0  0  0  0  0  0  0
   22.5740   14.7390    9.5680 N   0  0  0  0  0  0  0  0  0  0  0  0
   22.4630   14.1980   10.4140 H   0  0  0  0  0  0  0  0  0  0  0  0
   27.6390   16.5060    9.5380 C   0  0  0  0  0  0  0  0  0  0  0  0
   21.9330   17.7200    7.5940 C   0  0  0  0  0  0  0  0  0  0  0  0
   22.2760   17.8130    6.5640 H   0  0  0  0  0  0  0  0  0  0  0  0
   22.3810   18.5090    8.1990 H   0  0  0  0  0  0  0  0  0  0  0  0
   20.8470   17.8110    7.6250 H   0  0  0  0  0  0  0  0  0  0  0  0
   21.3210   16.6530   10.2630 N   0  0  0  0  0  0  0  0  0  0  0  0
   21.0940   16.2700   11.1700 H   0  0  0  0  0  0  0  0  0  0  0  0
   20.9900   17.5720   10.0050 H   0  0  0  0  0  0  0  0  0  0  0  0
   27.0450   17.4570   10.4030 C   0  0  0  0  0  0  0  0  0  0  0  0
   26.0630   17.2760   10.8140 H   0  0  0  0  0  0  0  0  0  0  0  0
   27.7420   18.6460   10.7270 C   0  0  0  0  0  0  0  0  0  0  0  0
   29.0290   18.9000   10.1880 C   0  0  0  0  0  0  0  0  0  0  0  0
   29.5540   19.8090   10.4410 H   0  0  0  0  0  0  0  0  0  0  0  0
   29.6220   17.9540    9.3150 C   0  0  0  0  0  0  0  0  0  0  0  0
   30.8800   18.1900    8.7840 F   0  0  0  0  0  0  0  0  0  0  0  0
   28.9240   16.7660    8.9880 C   0  0  0  0  0  0  0  0  0  0  0  0
   29.3720   16.0510    8.3140 H   0  0  0  0  0  0  0  0  0  0  0  0
   23.5150   15.6060    6.3060 O   0  0  0  0  0  0  0  0  0  0  0  0
   23.0150   10.5220    7.3590 C   0  0  0  0  0  0  0  0  0  0  0  0
   23.2670   10.7410    6.3210 H   0  0  0  0  0  0  0  0  0  0  0  0
   21.9400   10.3650    7.4470 H   0  0  0  0  0  0  0  0  0  0  0  0
   23.5410    9.6230    7.6790 H   0  0  0  0  0  0  0  0  0  0  0  0
   23.0750   11.3910    9.7230 C   0  0  0  0  0  0  0  0  0  0  0  0
   23.3700   12.2260   10.3590 H   0  0  0  0  0  0  0  0  0  0  0  0
   23.6010   10.4900   10.0390 H   0  0  0  0  0  0  0  0  0  0  0  0
   22.0000   11.2320    9.8070 H   0  0  0  0  0  0  0  0  0  0  0  0
   27.1410   19.6160   11.5850 O   0  0  0  0  0  0  0  0  0  0  0  0
   27.9590   20.7470   11.8850 C   0  0  0  0  0  0  0  0  0  0  0  0
   27.4150   21.4250   12.5430 H   0  0  0  0  0  0  0  0  0  0  0  0
   28.2170   21.2640   10.9610 H   0  0  0  0  0  0  0  0  0  0  0  0
   28.8710   20.4140   12.3810 H   0  0  0  0  0  0  0  0  0  0  0  0
  1  2  2  0
  1  8  1  0
  1 21  1  0
  2  3  1  0
  2  4  1  0
  4  5  1  0
  4  6  2  0
  6  7  1  0
  6 10  1  0
  7  8  2  0
  7 15  1  0
  8  9  1  0
 10 11  1  0
 11 12  1  0
 11 39  1  0
 11 43  1  0
 12 13  1  0
 12 14  1  0
 15 12  1  6
 15 16  1  0
 15 19  1  0
 16 17  1  0
 16 38  2  0
 17 18  1  0
 17 22  1  0
 18 19  2  0
 18 26  1  0
 19 20  1  0
 21 29  2  0
 21 36  1  0
 22 23  1  0
 22 24  1  0
 22 25  1  0
 26 27  1  0
 26 28  1  0
 29 30  1  0
 29 31  1  0
 31 32  2  0
 31 47  1  0
 32 33  1  0
 32 34  1  0
 34 35  1  0
 34 36  2  0
 36 37  1  0
 39 40  1  0
 39 41  1  0
 39 42  1  0
 43 44  1  0
 43 45  1  0
 43 46  1  0
 47 48  1  0
 48 49  1  0
 48 50  1  0
 48 51  1  0
M  CHG  1  19   1
M  END
>  <r_exp_dg>  (9) 
-9.90099

>  <experimental dG reference units>  (9) 
kcal/mol

>  <experimental dG reference field>  (9) 
r_exp_dg

>  <kJ/mol experimental dG>  (9) 
-41.425742160000006

>  <kcal/mol experimental dG>  (9) 
-9.90099

>  <AmberAM1BCCCache>  (9) 
gASVJAQAAAAAAABdlCiMFm51bXB5Ll9jb3JlLm11bHRpYXJyYXmUjAZzY2FsYXKUk5SMBW51bXB5lIwFZHR5cGWUk5SMAmY4lImIh5RSlChLA4wBPJROTk5K/////0r/////SwB0lGJDCLn07dfEHOK/lIaUUpRoA2gJQwhF6+UoVH3iv5SGlFKUaANoCUMIdxYxwzwd/z+UhpRSlGgDaAlDCGs0dZpBKfu/lIaUUpRoA2gJQwiXcwSsBIAAQJSGlFKUaANoCUMI4CrSHbFbAUCUhpRSlGgDaAlDCMEoIzKbMAbAlIaUUpRoA2gJQwjzQdoWTWnwv5SGlFKUaANoCUMIVdhVx8Jh9z+UhpRSlGgDaAlDCOhJUckqCQ3AlIaUUpRoA2gJQwiUAMrh5vH9P5SGlFKUaANoCUMIiF8c089Q87+UhpRSlGgDaAlDCP/C8QqAEPA/lIaUUpRoA2gJQwj/wvEKgBDwP5SGlFKUaANoCUMImXYtYKao7D+UhpRSlGgDaAlDCHknMkxSdyBAlIaUUpRoA2gJQwjgslclVhETwJSGlFKUaANoCUMI3HDgZypZFECUhpRSlGgDaAlDCMgWwaoNIBHAlIaUUpRoA2gJQwiek+NfK48PQJSGlFKUaANoCUMI7Jaq+5ZaLr+UhpRSlGgDaAlDCPbTU4fc2eQ/lIaUUpRoA2gJQwgZQiHlkNDvP5SGlFKUaANoCUMIGUIh5ZDQ7z+UhpRSlGgDaAlDCBlCIeWQ0O8/lIaUUpRoA2gJQwg0nhrzMO8VwJSGlFKUaANoCUMIh5lIzdFSD0CUhpRSlGgDaAlDCIeZSM3RUg9AlIaUUpRoA2gJQwiU2qgbk77+v5SGlFKUaANoCUMI1jJJ0I77/T+UhpRSlGgDaAlDCFK09BHJ8f4/lIaUUpRoA2gJQwjLx8eWFfkFwJSGlFKUaANoCUMIvRGta4RN/z+UhpRSlGgDaAlDCNmyLovnBABAlIaUUpRoA2gJQwgJ1GW9EeH4v5SGlFKUaANoCUMIoAc+NE5tA8CUhpRSlGgDaAlDCMN5BfFbJ/s/lIaUUpRoA2gJQwgNUYrsz/IVwJSGlFKUaANoCUMIgGJzVkQ99b+UhpRSlGgDaAlDCFNREMn2BOg/lIaUUpRoA2gJQwhTURDJ9gToP5SGlFKUaANoCUMIU1EQyfYE6D+UhpRSlGgDaAlDCIBic1ZEPfW/lIaUUpRoA2gJQwhTURDJ9gToP5SGlFKUaANoCUMIU1EQyfYE6D+UhpRSlGgDaAlDCFNREMn2BOg/lIaUUpRoA2gJQwjnL/vntBIOwJSGlFKUaANoCUMI4VNTAhR/9D+UhpRSlGgDaAlDCFpUCrlU4OQ/lIaUUpRoA2gJQwhaVAq5VODkP5SGlFKUaANoCUMIWlQKuVTg5D+UhpRSlGUu

$$$$
19
     RDKit          3D

 51 54  0  0  1  0  0  0  0  0999 V2000
   26.9470   15.3250    9.1860 C   0  0  0  0  0  0  0  0  0  0  0  0
   27.6320   14.0950    9.0140 C   0  0  0  0  0  0  0  0  0  0  0  0
   28.7000   14.0480    9.1690 H   0  0  0  0  0  0  0  0  0  0  0  0
   26.9220   12.9310    8.6410 C   0  0  0  0  0  0  0  0  0  0  0  0
   27.4460   11.9960    8.5080 H   0  0  0  0  0  0  0  0  0  0  0  0
   25.5210   12.9940    8.4420 C   0  0  0  0  0  0  0  0  0  0  0  0
   24.8260   14.2190    8.6190 C   0  0  0  0  0  0  0  0  0  0  0  0
   25.5440   15.3800    8.9820 C   0  0  0  0  0  0  0  0  0  0  0  0
   25.0210   16.3170    9.1050 H   0  0  0  0  0  0  0  0  0  0  0  0
   24.8500   11.8510    8.0940 O   0  0  0  0  0  0  0  0  0  0  0  0
   23.4360   11.7100    8.2520 C   0  0  0  0  0  0  0  0  0  0  0  0
   22.7180   13.0050    7.7980 C   0  0  0  0  0  0  0  0  0  0  0  0
   21.6740   12.9400    8.1030 H   0  0  0  0  0  0  0  0  0  0  0  0
   22.7760   13.0630    6.7110 H   0  0  0  0  0  0  0  0  0  0  0  0
   23.3110   14.3040    8.3820 C   0  0  2  0  0  0  0  0  0  0  0  0
   23.0360   15.4900    7.4390 C   0  0  0  0  0  0  0  0  0  0  0  0
   22.3290   16.4140    8.1240 N   0  0  0  0  0  0  0  0  0  0  0  0
   22.0880   15.9170    9.3720 C   0  0  0  0  0  0  0  0  0  0  0  0
   22.5740   14.7390    9.5680 N   0  0  0  0  0  0  0  0  0  0  0  0
   22.4630   14.1980   10.4140 H   0  0  0  0  0  0  0  0  0  0  0  0
   27.6390   16.5060    9.5380 C   0  0  0  0  0  0  0  0  0  0  0  0
   21.9330   17.7200    7.5940 C   0  0  0  0  0  0  0  0  0  0  0  0
   22.2760   17.8130    6.5640 H   0  0  0  0  0  0  0  0  0  0  0  0
   22.3810   18.5090    8.1990 H   0  0  0  0  0  0  0  0  0  0  0  0
   20.8470   17.8110    7.6250 H   0  0  0  0  0  0  0  0  0  0  0  0
   21.3210   16.6530   10.2630 N   0  0  0  0  0  0  0  0  0  0  0  0
   21.0940   16.2700   11.1700 H   0  0  0  0  0  0  0  0  0  0  0  0
   20.9900   17.5720   10.0050 H   0  0  0  0  0  0  0  0  0  0  0  0
   27.0450   17.4570   10.4030 C   0  0  0  0  0  0  0  0  0  0  0  0
   26.0630   17.2760   10.8140 H   0  0  0  0  0  0  0  0  0  0  0  0
   27.7420   18.6460   10.7270 C   0  0  0  0  0  0  0  0  0  0  0  0
   29.0290   18.9000   10.1880 C   0  0  0  0  0  0  0  0  0  0  0  0
   29.5540   19.8090   10.4410 H   0  0  0  0  0  0  0  0  0  0  0  0
   29.6220   17.9540    9.3150 C   0  0  0  0  0  0  0  0  0  0  0  0
   30.4890   18.1170    8.9490 H   0  0  0  0  0  0  0  0  0  0  0  0
   28.9240   16.7660    8.9880 C   0  0  0  0  0  0  0  0  0  0  0  0
   29.4990   15.8480    8.1230 F   0  0  0  0  0  0  0  0  0  0  0  0
   23.5150   15.6060    6.3060 O   0  0  0  0  0  0  0  0  0  0  0  0
   23.0150   10.5220    7.3590 C   0  0  0  0  0  0  0  0  0  0  0  0
   23.2670   10.7410    6.3210 H   0  0  0  0  0  0  0  0  0  0  0  0
   21.9400   10.3650    7.4470 H   0  0  0  0  0  0  0  0  0  0  0  0
   23.5410    9.6230    7.6790 H   0  0  0  0  0  0  0  0  0  0  0  0
   23.0750   11.3910    9.7230 C   0  0  0  0  0  0  0  0  0  0  0  0
   23.3700   12.2260   10.3590 H   0  0  0  0  0  0  0  0  0  0  0  0
   23.6010   10.4900   10.0390 H   0  0  0  0  0  0  0  0  0  0  0  0
   22.0000   11.2320    9.8070 H   0  0  0  0  0  0  0  0  0  0  0  0
   27.1410   19.6160   11.5850 O   0  0  0  0  0  0  0  0  0  0  0  0
   27.9590   20.7470   11.8850 C   0  0  0  0  0  0  0  0  0  0  0  0
   27.4150   21.4250   12.5430 H   0  0  0  0  0  0  0  0  0  0  0  0
   28.2170   21.2640   10.9610 H   0  0  0  0  0  0  0  0  0  0  0  0
   28.8710   20.4140   12.3810 H   0  0  0  0  0  0  0  0  0  0  0  0
  1  2  2  0
  1  8  1  0
  1 21  1  0
  2  3  1  0
  2  4  1  0
  4  5  1  0
  4  6  2  0
  6  7  1  0
  6 10  1  0
  7  8  2  0
  7 15  1  0
  8  9  1  0
 10 11  1  0
 11 12  1  0
 11 39  1  0
 11 43  1  0
 12 13  1  0
 12 14  1  0
 15 12  1  6
 15 16  1  0
 15 19  1  0
 16 17  1  0
 16 38  2  0
 17 18  1  0
 17 22  1  0
 18 19  2  0
 18 26  1  0
 19 20  1  0
 21 29  2  0
 21 36  1  0
 22 23  1  0
 22 24  1  0
 22 25  1  0
 26 27  1  0
 26 28  1  0
 29 30  1  0
 29 31  1  0
 31 32  2  0
 31 47  1  0
 32 33  1  0
 32 34  1  0
 34 35  1  0
 34 36  2  0
 36 37  1  0
 39 40  1  0
 39 41  1  0
 39 42  1  0
 43 44  1  0
 43 45  1  0
 43 46  1  0
 47 48  1  0
 48 49  1  0
 48 50  1  0
 48 51  1  0
M  CHG  1  19   1
M  END
>  <r_exp_dg>  (10) 
-9.91084

>  <experimental dG reference units>  (10) 
kcal/mol

>  <experimental dG reference field>  (10) 
r_exp_dg

>  <kJ/mol experimental dG>  (10) 
-41.466954560000005

>  <kcal/mol experimental dG>  (10) 
-9.91084

>  <AmberAM1BCCCache>  (10) 
gASVJAQAAAAAAABdlCiMFm51bXB5Ll9jb3JlLm11bHRpYXJyYXmUjAZzY2FsYXKUk5SMBW51bXB5lIwFZHR5cGWUk5SMAmY4lImIh5RSlChLA4wBPJROTk5K/////0r/////SwB0lGJDCBaTtxI0vOG/lIaUUpRoA2gJQwgWk7cSNLzhv5SGlFKUaANoCUMId1VYLK68/j+UhpRSlGgDaAlDCDznwSqnGvy/lIaUUpRoA2gJQwi5ENY04WcAQJSGlFKUaANoCUMIpsXherFbAUCUhpRSlGgDaAlDCEGJj33iYAbAlIaUUpRoA2gJQwi+k96cUevrv5SGlFKUaANoCUMIx+zYHLmz+D+UhpRSlGgDaAlDCPW6C0d3kAzAlIaUUpRoA2gJQwhPRHWiEGH9P5SGlFKUaANoCUMInA3lC31y9L+UhpRSlGgDaAlDCIjEZAKVI/I/lIaUUpRoA2gJQwiIxGQClSPyP5SGlFKUaANoCUMIWy2sTC2k6T+UhpRSlGgDaAlDCGWMpEJtiSBAlIaUUpRoA2gJQwgK6XI4IO0SwJSGlFKUaANoCUMIPj5olipZFECUhpRSlGgDaAlDCDdIWGYfLBHAlIaUUpRoA2gJQwgeM3cU5F4PQJSGlFKUaANoCUMIzGOPpwCf47+UhpRSlGgDaAlDCCQsgp38muU/lIaUUpRoA2gJQwjnR/QYUrDvP5SGlFKUaANoCUMI50f0GFKw7z+UhpRSlGgDaAlDCOdH9BhSsO8/lIaUUpRoA2gJQwh0ztCYVAcWwJSGlFKUaANoCUMIqTYaVq46D0CUhpRSlGgDaAlDCKk2GlauOg9AlIaUUpRoA2gJQwhaPApSnbX4v5SGlFKUaANoCUMIYWhoio/7/T+UhpRSlGgDaAlDCNGYKHJu9/c/lIaUUpRoA2gJQwhljfWr+K//v5SGlFKUaANoCUMIkHb0kLhq/T+UhpRSlGgDaAlDCKFrMr3Q0va/lIaUUpRoA2gJQwjWcXA5AJv9P5SGlFKUaANoCUMI+x7G2NuS8D+UhpRSlGgDaAlDCGFJ/tsaRvy/lIaUUpRoA2gJQwgfjQptQJIVwJSGlFKUaANoCUMIIzvgomys9L+UhpRSlGgDaAlDCPrm8lBzUuY/lIaUUpRoA2gJQwj65vJQc1LmP5SGlFKUaANoCUMI+ubyUHNS5j+UhpRSlGgDaAlDCCM74KJsrPS/lIaUUpRoA2gJQwj65vJQc1LmP5SGlFKUaANoCUMI+ubyUHNS5j+UhpRSlGgDaAlDCPrm8lBzUuY/lIaUUpRoA2gJQwhnkGcz/EIOwJSGlFKUaANoCUMIs4TuZFyv9D+UhpRSlGgDaAlDCP0anxNfP+Q/lIaUUpRoA2gJQwj9Gp8TXz/kP5SGlFKUaANoCUMI/RqfE18/5D+UhpRSlGUu

$$$$
20
     RDKit          3D

 47 50  0  0  1  0  0  0  0  0999 V2000
   26.9470   15.3250    9.1860 C   0  0  0  0  0  0  0  0  0  0  0  0
   27.6320   14.0950    9.0140 C   0  0  0  0  0  0  0  0  0  0  0  0
   28.7000   14.0480    9.1690 H   0  0  0  0  0  0  0  0  0  0  0  0
   26.9220   12.9310    8.6410 C   0  0  0  0  0  0  0  0  0  0  0  0
   27.4460   11.9960    8.5080 H   0  0  0  0  0  0  0  0  0  0  0  0
   25.5210   12.9940    8.4420 C   0  0  0  0  0  0  0  0  0  0  0  0
   24.8260   14.2190    8.6190 C   0  0  0  0  0  0  0  0  0  0  0  0
   25.5440   15.3800    8.9820 C   0  0  0  0  0  0  0  0  0  0  0  0
   25.0210   16.3170    9.1050 H   0  0  0  0  0  0  0  0  0  0  0  0
   24.8500   11.8510    8.0940 O   0  0  0  0  0  0  0  0  0  0  0  0
   23.4360   11.7100    8.2520 C   0  0  0  0  0  0  0  0  0  0  0  0
   22.7180   13.0050    7.7980 C   0  0  0  0  0  0  0  0  0  0  0  0
   21.6740   12.9400    8.1030 H   0  0  0  0  0  0  0  0  0  0  0  0
   22.7760   13.0630    6.7110 H   0  0  0  0  0  0  0  0  0  0  0  0
   23.3110   14.3040    8.3820 C   0  0  2  0  0  0  0  0  0  0  0  0
   23.0360   15.4900    7.4390 C   0  0  0  0  0  0  0  0  0  0  0  0
   22.3290   16.4140    8.1240 N   0  0  0  0  0  0  0  0  0  0  0  0
   22.0880   15.9170    9.3720 C   0  0  0  0  0  0  0  0  0  0  0  0
   22.5740   14.7390    9.5680 N   0  0  0  0  0  0  0  0  0  0  0  0
   22.4630   14.1980   10.4140 H   0  0  0  0  0  0  0  0  0  0  0  0
   27.6390   16.5060    9.5380 C   0  0  0  0  0  0  0  0  0  0  0  0
   21.9330   17.7200    7.5940 C   0  0  0  0  0  0  0  0  0  0  0  0
   22.2760   17.8130    6.5640 H   0  0  0  0  0  0  0  0  0  0  0  0
   22.3810   18.5090    8.1990 H   0  0  0  0  0  0  0  0  0  0  0  0
   20.8470   17.8110    7.6250 H   0  0  0  0  0  0  0  0  0  0  0  0
   21.3210   16.6530   10.2630 N   0  0  0  0  0  0  0  0  0  0  0  0
   21.0940   16.2700   11.1700 H   0  0  0  0  0  0  0  0  0  0  0  0
   20.9900   17.5720   10.0050 H   0  0  0  0  0  0  0  0  0  0  0  0
   28.9162   16.7813    8.9916 C   0  0  0  0  0  0  0  0  0  0  0  0
   29.3626   16.0960    8.2866 H   0  0  0  0  0  0  0  0  0  0  0  0
   29.6063   17.9573    9.3727 C   0  0  0  0  0  0  0  0  0  0  0  0
   29.0351   18.8620   10.3036 C   0  0  0  0  0  0  0  0  0  0  0  0
   29.5680   19.7570   10.5881 H   0  0  0  0  0  0  0  0  0  0  0  0
   27.7610   18.5844   10.8587 C   0  0  0  0  0  0  0  0  0  0  0  0
   27.1916   19.4620   11.7674 F   0  0  0  0  0  0  0  0  0  0  0  0
   27.0715   17.4067   10.4804 C   0  0  0  0  0  0  0  0  0  0  0  0
   26.2168   17.2151   10.8620 H   0  0  0  0  0  0  0  0  0  0  0  0
   23.5150   15.6060    6.3060 O   0  0  0  0  0  0  0  0  0  0  0  0
   23.0150   10.5220    7.3590 C   0  0  0  0  0  0  0  0  0  0  0  0
   23.2670   10.7410    6.3210 H   0  0  0  0  0  0  0  0  0  0  0  0
   21.9400   10.3650    7.4470 H   0  0  0  0  0  0  0  0  0  0  0  0
   23.5410    9.6230    7.6790 H   0  0  0  0  0  0  0  0  0  0  0  0
   23.0750   11.3910    9.7230 C   0  0  0  0  0  0  0  0  0  0  0  0
   23.3700   12.2260   10.3590 H   0  0  0  0  0  0  0  0  0  0  0  0
   23.6010   10.4900   10.0390 H   0  0  0  0  0  0  0  0  0  0  0  0
   22.0000   11.2320    9.8070 H   0  0  0  0  0  0  0  0  0  0  0  0
   30.9014   18.2314    8.8379 Cl  0  0  0  0  0  0  0  0  0  0  0  0
  1  2  2  0
  1  8  1  0
  1 21  1  0
  2  3  1  0
  2  4  1  0
  4  5  1  0
  4  6  2  0
  6  7  1  0
  6 10  1  0
  7  8  2  0
  7 15  1  0
  8  9  1  0
 10 11  1  0
 11 12  1  0
 11 39  1  0
 11 43  1  0
 12 13  1  0
 12 14  1  0
 15 12  1  6
 15 16  1  0
 15 19  1  0
 16 17  1  0
 16 38  2  0
 17 18  1  0
 17 22  1  0
 18 19  2  0
 18 26  1  0
 19 20  1  0
 21 29  2  0
 21 36  1  0
 22 23  1  0
 22 24  1  0
 22 25  1  0
 26 27  1  0
 26 28  1  0
 29 30  1  0
 29 31  1  0
 31 32  2  0
 31 47  1  0
 32 33  1  0
 32 34  1  0
 34 35  1  0
 34 36  2  0
 36 37  1  0
 39 40  1  0
 39 41  1  0
 39 42  1  0
 43 44  1  0
 43 45  1  0
 43 46  1  0
M  CHG  1  19   1
M  END
>  <r_exp_dg>  (11) 
-10.1676

>  <experimental dG reference units>  (11) 
kcal/mol

>  <experimental dG reference field>  (11) 
r_exp_dg

>  <kJ/mol experimental dG>  (11) 
-42.541238400000005

>  <kcal/mol experimental dG>  (11) 
-10.1676

>  <AmberAM1BCCCache>  (11) 
gASV2AMAAAAAAABdlCiMFm51bXB5Ll9jb3JlLm11bHRpYXJyYXmUjAZzY2FsYXKUk5SMBW51bXB5lIwFZHR5cGWUk5SMAmY4lImIh5RSlChLA4wBPJROTk5K/////0r/////SwB0lGJDCDsUXnIcneO/lIaUUpRoA2gJQwgnJ27Q/dviv5SGlFKUaANoCUMIhvhs7+ft/j+UhpRSlGgDaAlDCNFbQR0H+Pq/lIaUUpRoA2gJQwjkX57qoZgAQJSGlFKUaANoCUMI0BSqMHKMAUCUhpRSlGgDaAlDCNE+Sx/a/wXAlIaUUpRoA2gJQwic5VyRBq/vv5SGlFKUaANoCUMIqbUNnLVi9z+UhpRSlGgDaAlDCJxdt4qN8AzAlIaUUpRoA2gJQwjp3YG22fL9P5SGlFKUaANoCUMIeX3gpiSA87+UhpRSlGgDaAlDCFSgqd9yEfA/lIaUUpRoA2gJQwhUoKnfchHwP5SGlFKUaANoCUMIzieVWhsL7T+UhpRSlGgDaAlDCCQjyaZwdyBAlIaUUpRoA2gJQwi6vAqGBwUTwJSGlFKUaANoCUMIA2ctB3llFECUhpRSlGgDaAlDCLkaD54YUBHAlIaUUpRoA2gJQwjpf32eyKcPQJSGlFKUaANoCUMI7HzdgRGmyb+UhpRSlGgDaAlDCJ+OwzDC2+Q/lIaUUpRoA2gJQwhjRdcWnvLvP5SGlFKUaANoCUMIY0XXFp7y7z+UhpRSlGgDaAlDCGNF1xae8u8/lIaUUpRoA2gJQwixpQsoBvsVwJSGlFKUaANoCUMIAofDIV1fD0CUhpRSlGgDaAlDCAKHwyFdXw9AlIaUUpRoA2gJQwgXV73FTij7v5SGlFKUaANoCUMIpoFh2cl1+T+UhpRSlGgDaAlDCF0yo1OyXuA/lIaUUpRoA2gJQwhzPykQtRn8v5SGlFKUaANoCUMIhV3cvsWwAECUhpRSlGgDaAlDCGmT2br/1fw/lIaUUpRoA2gJQwguNGJae2z2v5SGlFKUaANoCUMIFCMRA2M7/b+UhpRSlGgDaAlDCLUG+fUQXf4/lIaUUpRoA2gJQwgVXB5jb9oVwJSGlFKUaANoCUMIKoW7gVE89b+UhpRSlGgDaAlDCEEH/BokN+g/lIaUUpRoA2gJQwhBB/waJDfoP5SGlFKUaANoCUMIQQf8GiQ36D+UhpRSlGgDaAlDCCqFu4FRPPW/lIaUUpRoA2gJQwhBB/waJDfoP5SGlFKUaANoCUMIQQf8GiQ36D+UhpRSlGgDaAlDCEEH/BokN+g/lIaUUpRoA2gJQwgGM8rdz43qv5SGlFKUZS4=

$$$$
21
     RDKit          3D

 47 50  0  0  1  0  0  0  0  0999 V2000
   26.9470   15.3250    9.1860 C   0  0  0  0  0  0  0  0  0  0  0  0
   27.6320   14.0950    9.0140 C   0  0  0  0  0  0  0  0  0  0  0  0
   28.7000   14.0480    9.1690 H   0  0  0  0  0  0  0  0  0  0  0  0
   26.9220   12.9310    8.6410 C   0  0  0  0  0  0  0  0  0  0  0  0
   27.4460   11.9960    8.5080 H   0  0  0  0  0  0  0  0  0  0  0  0
   25.5210   12.9940    8.4420 C   0  0  0  0  0  0  0  0  0  0  0  0
   24.8260   14.2190    8.6190 C   0  0  0  0  0  0  0  0  0  0  0  0
   25.5440   15.3800    8.9820 C   0  0  0  0  0  0  0  0  0  0  0  0
   25.0210   16.3170    9.1050 H   0  0  0  0  0  0  0  0  0  0  0  0
   24.8500   11.8510    8.0940 O   0  0  0  0  0  0  0  0  0  0  0  0
   23.4360   11.7100    8.2520 C   0  0  0  0  0  0  0  0  0  0  0  0
   22.7180   13.0050    7.7980 C   0  0  0  0  0  0  0  0  0  0  0  0
   21.6740   12.9400    8.1030 H   0  0  0  0  0  0  0  0  0  0  0  0
   22.7760   13.0630    6.7110 H   0  0  0  0  0  0  0  0  0  0  0  0
   23.3110   14.3040    8.3820 C   0  0  2  0  0  0  0  0  0  0  0  0
   23.0360   15.4900    7.4390 C   0  0  0  0  0  0  0  0  0  0  0  0
   22.3290   16.4140    8.1240 N   0  0  0  0  0  0  0  0  0  0  0  0
   22.0880   15.9170    9.3720 C   0  0  0  0  0  0  0  0  0  0  0  0
   22.5740   14.7390    9.5680 N   0  0  0  0  0  0  0  0  0  0  0  0
   22.4630   14.1980   10.4140 H   0  0  0  0  0  0  0  0  0  0  0  0
   27.6390   16.5060    9.5380 C   0  0  0  0  0  0  0  0  0  0  0  0
   21.9330   17.7200    7.5940 C   0  0  0  0  0  0  0  0  0  0  0  0
   22.2760   17.8130    6.5640 H   0  0  0  0  0  0  0  0  0  0  0  0
   22.3810   18.5090    8.1990 H   0  0  0  0  0  0  0  0  0  0  0  0
   20.8470   17.8110    7.6250 H   0  0  0  0  0  0  0  0  0  0  0  0
   21.3210   16.6530   10.2630 N   0  0  0  0  0  0  0  0  0  0  0  0
   21.0940   16.2700   11.1700 H   0  0  0  0  0  0  0  0  0  0  0  0
   20.9900   17.5720   10.0050 H   0  0  0  0  0  0  0  0  0  0  0  0
   27.0450   17.4570   10.4030 C   0  0  0  0  0  0  0  0  0  0  0  0
   26.0630   17.2760   10.8140 H   0  0  0  0  0  0  0  0  0  0  0  0
   27.7420   18.6460   10.7270 C   0  0  0  0  0  0  0  0  0  0  0  0
   29.0290   18.9000   10.1880 C   0  0  0  0  0  0  0  0  0  0  0  0
   29.5540   19.8090   10.4410 H   0  0  0  0  0  0  0  0  0  0  0  0
   29.6220   17.9540    9.3150 C   0  0  0  0  0  0  0  0  0  0  0  0
   30.4890   18.1170    8.9490 H   0  0  0  0  0  0  0  0  0  0  0  0
   28.9240   16.7660    8.9880 C   0  0  0  0  0  0  0  0  0  0  0  0
   29.4990   15.8480    8.1230 F   0  0  0  0  0  0  0  0  0  0  0  0
   23.5150   15.6060    6.3060 O   0  0  0  0  0  0  0  0  0  0  0  0
   23.0150   10.5220    7.3590 C   0  0  0  0  0  0  0  0  0  0  0  0
   23.2670   10.7410    6.3210 H   0  0  0  0  0  0  0  0  0  0  0  0
   21.9400   10.3650    7.4470 H   0  0  0  0  0  0  0  0  0  0  0  0
   23.5410    9.6230    7.6790 H   0  0  0  0  0  0  0  0  0  0  0  0
   23.0750   11.3910    9.7230 C   0  0  0  0  0  0  0  0  0  0  0  0
   23.3700   12.2260   10.3590 H   0  0  0  0  0  0  0  0  0  0  0  0
   23.6010   10.4900   10.0390 H   0  0  0  0  0  0  0  0  0  0  0  0
   22.0000   11.2320    9.8070 H   0  0  0  0  0  0  0  0  0  0  0  0
   27.1410   19.6160   11.5850 Cl  0  0  0  0  0  0  0  0  0  0  0  0
  1  2  2  0
  1  8  1  0
  1 21  1  0
  2  3  1  0
  2  4  1  0
  4  5  1  0
  4  6  2  0
  6  7  1  0
  6 10  1  0
  7  8  2  0
  7 15  1  0
  8  9  1  0
 10 11  1  0
 11 12  1  0
 11 39  1  0
 11 43  1  0
 12 13  1  0
 12 14  1  0
 15 12  1  6
 15 16  1  0
 15 19  1  0
 16 17  1  0
 16 38  2  0
 17 18  1  0
 17 22  1  0
 18 19  2  0
 18 26  1  0
 19 20  1  0
 21 29  2  0
 21 36  1  0
 22 23  1  0
 22 24  1  0
 22 25  1  0
 26 27  1  0
 26 28  1  0
 29 30  1  0
 29 31  1  0
 31 32  2  0
 31 47  1  0
 32 33  1  0
 32 34  1  0
 34 35  1  0
 34 36  2  0
 36 37  1  0
 39 40  1  0
 39 41  1  0
 39 42  1  0
 43 44  1  0
 43 45  1  0
 43 46  1  0
M  CHG  1  19   1
M  END
>  <r_exp_dg>  (12) 
-10.2153

>  <experimental dG reference units>  (12) 
kcal/mol

>  <experimental dG reference field>  (12) 
r_exp_dg

>  <kJ/mol experimental dG>  (12) 
-42.7408152

>  <kcal/mol experimental dG>  (12) 
-10.2153

>  <AmberAM1BCCCache>  (12) 
gASV2AMAAAAAAABdlCiMFm51bXB5Ll9jb3JlLm11bHRpYXJyYXmUjAZzY2FsYXKUk5SMBW51bXB5lIwFZHR5cGWUk5SMAmY4lImIh5RSlChLA4wBPJROTk5K/////0r/////SwB0lGJDCC1ErWdt6du/lIaUUpRoA2gJQwjGClbDq/3jv5SGlFKUaANoCUMInOVckQav/z+UhpRSlGgDaAlDCJCUcTertPi/lIaUUpRoA2gJQwj7ZuRtNlAAQJSGlFKUaANoCUMIIgMNGwRs+j+UhpRSlGgDaAlDCHdwNbbpBATAlIaUUpRoA2gJQwjsfN2BEabpv5SGlFKUaANoCUMI0VtBHQf4+j+UhpRSlGgDaAlDCK0W+2nAxA/AlIaUUpRoA2gJQwhe54llSpL9P5SGlFKUaANoCUMIvnhcT2yw87+UhpRSlGgDaAlDCN58S0+Me/E/lIaUUpRoA2gJQwjefEtPjHvxP5SGlFKUaANoCUMIqbUNnLVi5z+UhpRSlGgDaAlDCC+gFnCdlSBAlIaUUpRoA2gJQwhdukhaKx0TwJSGlFKUaANoCUMISGKpr8CVFECUhpRSlGgDaAlDCKIgdAu/ExHAlIaUUpRoA2gJQwgjtHR0l0wQQJSGlFKUaANoCUMIE24q8coH8L+UhpRSlGgDaAlDCLV7s9LgnOU/lIaUUpRoA2gJQwjYTt/FDpLvP5SGlFKUaANoCUMI2E7fxQ6S7z+UhpRSlGgDaAlDCNhO38UOku8/lIaUUpRoA2gJQwiCpCoSGAcWwJSGlFKUaANoCUMIMYikN0tTD0CUhpRSlGgDaAlDCDGIpDdLUw9AlIaUUpRoA2gJQwjgK/Intqvyv5SGlFKUaANoCUMIRmVJzHeX+j+UhpRSlGgDaAlDCEvDln3L95w/lIaUUpRoA2gJQwj7AXWeWI3uv5SGlFKUaANoCUMIVurg6L5+/z+UhpRSlGgDaAlDCC1ErWdt6fu/lIaUUpRoA2gJQwic5VyRBq//P5SGlFKUaANoCUMIyK/xx1G0+z+UhpRSlGgDaAlDCKAJvkYAH/i/lIaUUpRoA2gJQwiJWHshpf4VwJSGlFKUaANoCUMIz5xPN+tK9L+UhpRSlGgDaAlDCNExoC6fhOY/lIaUUpRoA2gJQwjRMaAun4TmP5SGlFKUaANoCUMI0TGgLp+E5j+UhpRSlGgDaAlDCM+cTzfrSvS/lIaUUpRoA2gJQwjRMaAun4TmP5SGlFKUaANoCUMI0TGgLp+E5j+UhpRSlGgDaAlDCNExoC6fhOY/lIaUUpRoA2gJQwgGM8rdz43qv5SGlFKUZS4=

$$$$
22
     RDKit          3D

 57 60  0  0  1  0  0  0  0  0999 V2000
   26.9470   15.3250    9.1860 C   0  0  0  0  0  0  0  0  0  0  0  0
   27.6320   14.0950    9.0140 C   0  0  0  0  0  0  0  0  0  0  0  0
   28.7000   14.0480    9.1690 H   0  0  0  0  0  0  0  0  0  0  0  0
   26.9220   12.9310    8.6410 C   0  0  0  0  0  0  0  0  0  0  0  0
   27.4460   11.9960    8.5080 H   0  0  0  0  0  0  0  0  0  0  0  0
   25.5210   12.9940    8.4420 C   0  0  0  0  0  0  0  0  0  0  0  0
   24.8260   14.2190    8.6190 C   0  0  0  0  0  0  0  0  0  0  0  0
   25.5440   15.3800    8.9820 C   0  0  0  0  0  0  0  0  0  0  0  0
   25.0210   16.3170    9.1050 H   0  0  0  0  0  0  0  0  0  0  0  0
   24.8500   11.8510    8.0940 O   0  0  0  0  0  0  0  0  0  0  0  0
   23.4360   11.7100    8.2520 C   0  0  0  0  0  0  0  0  0  0  0  0
   22.7180   13.0050    7.7980 C   0  0  0  0  0  0  0  0  0  0  0  0
   21.6740   12.9400    8.1030 H   0  0  0  0  0  0  0  0  0  0  0  0
   22.7760   13.0630    6.7110 H   0  0  0  0  0  0  0  0  0  0  0  0
   23.3110   14.3040    8.3820 C   0  0  2  0  0  0  0  0  0  0  0  0
   23.0360   15.4900    7.4390 C   0  0  0  0  0  0  0  0  0  0  0  0
   22.3290   16.4140    8.1240 N   0  0  0  0  0  0  0  0  0  0  0  0
   22.0880   15.9170    9.3720 C   0  0  0  0  0  0  0  0  0  0  0  0
   22.5740   14.7390    9.5680 N   0  0  0  0  0  0  0  0  0  0  0  0
   22.4630   14.1980   10.4140 H   0  0  0  0  0  0  0  0  0  0  0  0
   27.6390   16.5060    9.5380 C   0  0  0  0  0  0  0  0  0  0  0  0
   21.9330   17.7200    7.5940 C   0  0  0  0  0  0  0  0  0  0  0  0
   22.2760   17.8130    6.5640 H   0  0  0  0  0  0  0  0  0  0  0  0
   22.3810   18.5090    8.1990 H   0  0  0  0  0  0  0  0  0  0  0  0
   20.8470   17.8110    7.6250 H   0  0  0  0  0  0  0  0  0  0  0  0
   21.3210   16.6530   10.2630 N   0  0  0  0  0  0  0  0  0  0  0  0
   21.0940   16.2700   11.1700 H   0  0  0  0  0  0  0  0  0  0  0  0
   20.9900   17.5720   10.0050 H   0  0  0  0  0  0  0  0  0  0  0  0
   27.0450   17.4570   10.4030 C   0  0  0  0  0  0  0  0  0  0  0  0
   26.0630   17.2760   10.8140 H   0  0  0  0  0  0  0  0  0  0  0  0
   27.7420   18.6460   10.7270 C   0  0  0  0  0  0  0  0  0  0  0  0
   29.0290   18.9000   10.1880 C   0  0  0  0  0  0  0  0  0  0  0  0
   29.5540   19.8090   10.4410 H   0  0  0  0  0  0  0  0  0  0  0  0
   29.6220   17.9540    9.3150 C   0  0  0  0  0  0  0  0  0  0  0  0
   30.9180   18.1970    8.7670 O   0  0  0  0  0  0  0  0  0  0  0  0
   30.9390   18.4760    7.3670 C   0  0  0  0  0  0  0  0  0  0  0  0
   32.2850   18.6990    6.9460 C   0  0  0  0  0  0  0  0  0  0  0  0
   32.7000   19.5470    7.4910 H   0  0  0  0  0  0  0  0  0  0  0  0
   32.3010   18.9120    5.8770 H   0  0  0  0  0  0  0  0  0  0  0  0
   32.8820   17.8100    7.1490 H   0  0  0  0  0  0  0  0  0  0  0  0
   30.1580   19.6410    7.1010 C   0  0  0  0  0  0  0  0  0  0  0  0
   30.5730   20.4890    7.6470 H   0  0  0  0  0  0  0  0  0  0  0  0
   29.1300   19.4700    7.4230 H   0  0  0  0  0  0  0  0  0  0  0  0
   30.1740   19.8530    6.0330 H   0  0  0  0  0  0  0  0  0  0  0  0
   30.5240   17.6280    6.8220 H   0  0  0  0  0  0  0  0  0  0  0  0
   28.9240   16.7660    8.9880 C   0  0  0  0  0  0  0  0  0  0  0  0
   29.3200   16.1330    8.3920 H   0  0  0  0  0  0  0  0  0  0  0  0
   23.5150   15.6060    6.3060 O   0  0  0  0  0  0  0  0  0  0  0  0
   23.0150   10.5220    7.3590 C   0  0  0  0  0  0  0  0  0  0  0  0
   23.2670   10.7410    6.3210 H   0  0  0  0  0  0  0  0  0  0  0  0
   21.9400   10.3650    7.4470 H   0  0  0  0  0  0  0  0  0  0  0  0
   23.5410    9.6230    7.6790 H   0  0  0  0  0  0  0  0  0  0  0  0
   23.0750   11.3910    9.7230 C   0  0  0  0  0  0  0  0  0  0  0  0
   23.3700   12.2260   10.3590 H   0  0  0  0  0  0  0  0  0  0  0  0
   23.6010   10.4900   10.0390 H   0  0  0  0  0  0  0  0  0  0  0  0
   22.0000   11.2320    9.8070 H   0  0  0  0  0  0  0  0  0  0  0  0
   27.3400   19.2950   11.3010 H   0  0  0  0  0  0  0  0  0  0  0  0
  1  2  2  0
  1  8  1  0
  1 21  1  0
  2  3  1  0
  2  4  1  0
  4  5  1  0
  4  6  2  0
  6  7  1  0
  6 10  1  0
  7  8  2  0
  7 15  1  0
  8  9  1  0
 10 11  1  0
 11 12  1  0
 11 49  1  0
 11 53  1  0
 12 13  1  0
 12 14  1  0
 15 12  1  6
 15 16  1  0
 15 19  1  0
 16 17  1  0
 16 48  2  0
 17 18  1  0
 17 22  1  0
 18 19  2  0
 18 26  1  0
 19 20  1  0
 21 29  2  0
 21 46  1  0
 22 23  1  0
 22 24  1  0
 22 25  1  0
 26 27  1  0
 26 28  1  0
 29 30  1  0
 29 31  1  0
 31 32  2  0
 31 57  1  0
 32 33  1  0
 32 34  1  0
 34 35  1  0
 34 46  2  0
 35 36  1  0
 36 37  1  0
 36 41  1  0
 36 45  1  0
 37 38  1  0
 37 39  1  0
 37 40  1  0
 41 42  1  0
 41 43  1  0
 41 44  1  0
 46 47  1  0
 49 50  1  0
 49 51  1  0
 49 52  1  0
 53 54  1  0
 53 55  1  0
 53 56  1  0
M  CHG  1  19   1
M  END
>  <r_exp_dg>  (13) 
-7.60692

>  <experimental dG reference units>  (13) 
kcal/mol

>  <experimental dG reference field>  (13) 
r_exp_dg

>  <kJ/mol experimental dG>  (13) 
-31.82735328

>  <kcal/mol experimental dG>  (13) 
-7.60692

>  <AmberAM1BCCCache>  (13) 
gASVlgQAAAAAAABdlCiMFm51bXB5Ll9jb3JlLm11bHRpYXJyYXmUjAZzY2FsYXKUk5SMBW51bXB5lIwFZHR5cGWUk5SMAmY4lImIh5RSlChLA4wBPJROTk5K/////0r/////SwB0lGJDCFwDGnhNtN6/lIaUUpRoA2gJQwiZ7QaR9BHjv5SGlFKUaANoCUMIzkrW47fg/j+UhpRSlGgDaAlDCGHRInU7zfu/lIaUUpRoA2gJQwjh6nMShFAAQJSGlFKUaANoCUMIoha13DfnAECUhpRSlGgDaAlDCPb7/XZQUgbAlIaUUpRoA2gJQwiPYYdQdzfwv5SGlFKUaANoCUMIvCMUNy+v9z+UhpRSlGgDaAlDCLIDUZMSuQzAlIaUUpRoA2gJQwgjhD0FT3f9P5SGlFKUaANoCUMIhz0Mqo1H9L+UhpRSlGgDaAlDCC8Q9z8gwfE/lIaUUpRoA2gJQwgvEPc/IMHxP5SGlFKUaANoCUMIE8RVYZta6j+UhpRSlGgDaAlDCFBwOc8IhyBAlIaUUpRoA2gJQwiY+eGd8hATwJSGlFKUaANoCUMIRHLebuZjFECUhpRSlGgDaAlDCCDwHU43HBHAlIaUUpRoA2gJQwiICJGazncPQJSGlFKUaANoCUMIAeTuRjyU27+UhpRSlGgDaAlDCDzfQ7+8L+U/lIaUUpRoA2gJQwiB1gJH3ZfvP5SGlFKUaANoCUMIgdYCR92X7z+UhpRSlGgDaAlDCIHWAkfdl+8/lIaUUpRoA2gJQwgvdbVqfgMWwJSGlFKUaANoCUMI9MOrXEBJD0CUhpRSlGgDaAlDCPTDq1xASQ9AlIaUUpRoA2gJQwiQFm5iD2v9v5SGlFKUaANoCUMITvDi2utG+D+UhpRSlGgDaAlDCJZuHYpPnfK/lIaUUpRoA2gJQwiRwjPLhiYAwJSGlFKUaANoCUMI1OntTzrp/D+UhpRSlGgDaAlDCG3A4bhqevo/lIaUUpRoA2gJQwiuILqYR/EPwJSGlFKUaANoCUMIRIgsBW9C+z+UhpRSlGgDaAlDCIfSuvHmq/e/lIaUUpRoA2gJQwhevz3UdmPjP5SGlFKUaANoCUMIXr891HZj4z+UhpRSlGgDaAlDCF6/PdR2Y+M/lIaUUpRoA2gJQwiH0rrx5qv3v5SGlFKUaANoCUMIXr891HZj4z+UhpRSlGgDaAlDCF6/PdR2Y+M/lIaUUpRoA2gJQwhevz3UdmPjP5SGlFKUaANoCUMIH1YLdiX97D+UhpRSlGgDaAlDCH2U6WmHxfy/lIaUUpRoA2gJQwgBjQ6tzDz8P5SGlFKUaANoCUMIYb975mLTFcCUhpRSlGgDaAlDCDEe+2lsp/S/lIaUUpRoA2gJQwjSLu7BNoHmP5SGlFKUaANoCUMI0i7uwTaB5j+UhpRSlGgDaAlDCNIu7sE2geY/lIaUUpRoA2gJQwgxHvtpbKf0v5SGlFKUaANoCUMI0i7uwTaB5j+UhpRSlGgDaAlDCNIu7sE2geY/lIaUUpRoA2gJQwjSLu7BNoHmP5SGlFKUaANoCUMITSeiwZZ1+j+UhpRSlGUu

$$$$
23
     RDKit          3D

 54 57  0  0  1  0  0  0  0  0999 V2000
   26.9470   15.3250    9.1860 C   0  0  0  0  0  0  0  0  0  0  0  0
   27.6320   14.0950    9.0140 C   0  0  0  0  0  0  0  0  0  0  0  0
   28.7000   14.0480    9.1690 H   0  0  0  0  0  0  0  0  0  0  0  0
   26.9220   12.9310    8.6410 C   0  0  0  0  0  0  0  0  0  0  0  0
   27.4460   11.9960    8.5080 H   0  0  0  0  0  0  0  0  0  0  0  0
   25.5210   12.9940    8.4420 C   0  0  0  0  0  0  0  0  0  0  0  0
   24.8260   14.2190    8.6190 C   0  0  0  0  0  0  0  0  0  0  0  0
   25.5440   15.3800    8.9820 C   0  0  0  0  0  0  0  0  0  0  0  0
   25.0210   16.3170    9.1050 H   0  0  0  0  0  0  0  0  0  0  0  0
   24.8500   11.8510    8.0940 O   0  0  0  0  0  0  0  0  0  0  0  0
   23.4360   11.7100    8.2520 C   0  0  0  0  0  0  0  0  0  0  0  0
   22.7180   13.0050    7.7980 C   0  0  0  0  0  0  0  0  0  0  0  0
   21.6740   12.9400    8.1030 H   0  0  0  0  0  0  0  0  0  0  0  0
   22.7760   13.0630    6.7110 H   0  0  0  0  0  0  0  0  0  0  0  0
   23.3110   14.3040    8.3820 C   0  0  2  0  0  0  0  0  0  0  0  0
   23.0360   15.4900    7.4390 C   0  0  0  0  0  0  0  0  0  0  0  0
   22.3290   16.4140    8.1240 N   0  0  0  0  0  0  0  0  0  0  0  0
   22.0880   15.9170    9.3720 C   0  0  0  0  0  0  0  0  0  0  0  0
   22.5740   14.7390    9.5680 N   0  0  0  0  0  0  0  0  0  0  0  0
   22.4630   14.1980   10.4140 H   0  0  0  0  0  0  0  0  0  0  0  0
   27.6390   16.5060    9.5380 C   0  0  0  0  0  0  0  0  0  0  0  0
   21.9330   17.7200    7.5940 C   0  0  0  0  0  0  0  0  0  0  0  0
   22.2760   17.8130    6.5640 H   0  0  0  0  0  0  0  0  0  0  0  0
   22.3810   18.5090    8.1990 H   0  0  0  0  0  0  0  0  0  0  0  0
   20.8470   17.8110    7.6250 H   0  0  0  0  0  0  0  0  0  0  0  0
   21.3210   16.6530   10.2630 N   0  0  0  0  0  0  0  0  0  0  0  0
   21.0940   16.2700   11.1700 H   0  0  0  0  0  0  0  0  0  0  0  0
   20.9900   17.5720   10.0050 H   0  0  0  0  0  0  0  0  0  0  0  0
   27.0450   17.4570   10.4030 C   0  0  0  0  0  0  0  0  0  0  0  0
   26.0630   17.2760   10.8140 H   0  0  0  0  0  0  0  0  0  0  0  0
   27.7420   18.6460   10.7270 C   0  0  0  0  0  0  0  0  0  0  0  0
   29.0290   18.9000   10.1880 C   0  0  0  0  0  0  0  0  0  0  0  0
   29.5540   19.8090   10.4410 H   0  0  0  0  0  0  0  0  0  0  0  0
   29.6220   17.9540    9.3150 C   0  0  0  0  0  0  0  0  0  0  0  0
   30.6020   18.1380    8.9010 H   0  0  0  0  0  0  0  0  0  0  0  0
   28.9240   16.7660    8.9880 C   0  0  0  0  0  0  0  0  0  0  0  0
   29.3720   16.0510    8.3140 H   0  0  0  0  0  0  0  0  0  0  0  0
   23.5150   15.6060    6.3060 O   0  0  0  0  0  0  0  0  0  0  0  0
   23.0150   10.5220    7.3590 C   0  0  0  0  0  0  0  0  0  0  0  0
   23.2670   10.7410    6.3210 H   0  0  0  0  0  0  0  0  0  0  0  0
   21.9400   10.3650    7.4470 H   0  0  0  0  0  0  0  0  0  0  0  0
   23.5410    9.6230    7.6790 H   0  0  0  0  0  0  0  0  0  0  0  0
   23.0750   11.3910    9.7230 C   0  0  0  0  0  0  0  0  0  0  0  0
   23.3700   12.2260   10.3590 H   0  0  0  0  0  0  0  0  0  0  0  0
   23.6010   10.4900   10.0390 H   0  0  0  0  0  0  0  0  0  0  0  0
   22.0000   11.2320    9.8070 H   0  0  0  0  0  0  0  0  0  0  0  0
   27.1410   19.6160   11.5850 O   0  0  0  0  0  0  0  0  0  0  0  0
   27.9590   20.7470   11.8850 C   0  0  0  0  0  0  0  0  0  0  0  0
   27.2460   21.6350   12.7470 C   0  0  0  0  0  0  0  0  0  0  0  0
   26.3350   21.9680   12.2510 H   0  0  0  0  0  0  0  0  0  0  0  0
   27.8710   22.4980   12.9760 H   0  0  0  0  0  0  0  0  0  0  0  0
   26.9890   21.1170   13.6710 H   0  0  0  0  0  0  0  0  0  0  0  0
   28.2170   21.2640   10.9610 H   0  0  0  0  0  0  0  0  0  0  0  0
   28.8710   20.4140   12.3810 H   0  0  0  0  0  0  0  0  0  0  0  0
  1  2  2  0
  1  8  1  0
  1 21  1  0
  2  3  1  0
  2  4  1  0
  4  5  1  0
  4  6  2  0
  6  7  1  0
  6 10  1  0
  7  8  2  0
  7 15  1  0
  8  9  1  0
 10 11  1  0
 11 12  1  0
 11 39  1  0
 11 43  1  0
 12 13  1  0
 12 14  1  0
 15 12  1  6
 15 16  1  0
 15 19  1  0
 16 17  1  0
 16 38  2  0
 17 18  1  0
 17 22  1  0
 18 19  2  0
 18 26  1  0
 19 20  1  0
 21 29  2  0
 21 36  1  0
 22 23  1  0
 22 24  1  0
 22 25  1  0
 26 27  1  0
 26 28  1  0
 29 30  1  0
 29 31  1  0
 31 32  2  0
 31 47  1  0
 32 33  1  0
 32 34  1  0
 34 35  1  0
 34 36  2  0
 36 37  1  0
 39 40  1  0
 39 41  1  0
 39 42  1  0
 43 44  1  0
 43 45  1  0
 43 46  1  0
 47 48  1  0
 48 49  1  0
 48 53  1  0
 48 54  1  0
 49 50  1  0
 49 51  1  0
 49 52  1  0
M  CHG  1  19   1
M  END
>  <r_exp_dg>  (14) 
-9.81896

>  <experimental dG reference units>  (14) 
kcal/mol

>  <experimental dG reference field>  (14) 
r_exp_dg

>  <kJ/mol experimental dG>  (14) 
-41.08252864000001

>  <kcal/mol experimental dG>  (14) 
-9.81896

>  <AmberAM1BCCCache>  (14) 
gASVXQQAAAAAAABdlCiMFm51bXB5Ll9jb3JlLm11bHRpYXJyYXmUjAZzY2FsYXKUk5SMBW51bXB5lIwFZHR5cGWUk5SMAmY4lImIh5RSlChLA4wBPJROTk5K/////0r/////SwB0lGJDCKyEnLwEr9+/lIaUUpRoA2gJQwgiABaVbXviv5SGlFKUaANoCUMIBgwZDTAe/z+UhpRSlGgDaAlDCPIrffJs6fu/lIaUUpRoA2gJQwgZc3yoNlAAQJSGlFKUaANoCUMIejGQnXfjAECUhpRSlGgDaAlDCEApqzVpYAbAlIaUUpRoA2gJQwgktfymBa/vv5SGlFKUaANoCUMIcMQ1YkXD9z+UhpRSlGgDaAlDCPJaJ//9jwzAlIaUUpRoA2gJQwhSBD4yA2L9P5SGlFKUaANoCUMImE0cfIpx9L+UhpRSlGgDaAlDCOqG771jDPI/lIaUUpRoA2gJQwjqhu+9YwzyP5SGlFKUaANoCUMI76M1vaEG6j+UhpRSlGgDaAlDCGaknZSLiSBAlIaUUpRoA2gJQwh8td1SGRETwJSGlFKUaANoCUMIEW15JHllFECUhpRSlGgDaAlDCGQZR9jQHxHAlIaUUpRoA2gJQwjCkJkwgXcPQJSGlFKUaANoCUMIulRNx7Ni17+UhpRSlGgDaAlDCKS1G2xSPOU/lIaUUpRoA2gJQwiuNvkn6HHvP5SGlFKUaANoCUMIrjb5J+hx7z+UhpRSlGgDaAlDCK42+Sfoce8/lIaUUpRoA2gJQwhznt70FwcWwJSGlFKUaANoCUMIf5UdiDlHD0CUhpRSlGgDaAlDCH+VHYg5Rw9AlIaUUpRoA2gJQwg3J/matBn8v5SGlFKUaANoCUMIxERJJ9Ta/D+UhpRSlGgDaAlDCKMWuThMnPo/lIaUUpRoA2gJQwisMmpLl+oBwJSGlFKUaANoCUMI81LVLf1J/D+UhpRSlGgDaAlDCDI+ZsYw+fC/lIaUUpRoA2gJQwg9gv2YMGf6P5SGlFKUaANoCUMIv+lEKViN/r+UhpRSlGgDaAlDCEC2qVscVPg/lIaUUpRoA2gJQwg0V7NbXc4VwJSGlFKUaANoCUMIe33ZPlaT9L+UhpRSlGgDaAlDCF60TlA4ROY/lIaUUpRoA2gJQwhetE5QOETmP5SGlFKUaANoCUMIXrROUDhE5j+UhpRSlGgDaAlDCHt92T5Wk/S/lIaUUpRoA2gJQwhetE5QOETmP5SGlFKUaANoCUMIXrROUDhE5j+UhpRSlGgDaAlDCF60TlA4ROY/lIaUUpRoA2gJQwh6HXONoQMPwJSGlFKUaANoCUMI9Cg0P5XW9z+UhpRSlGgDaAlDCAAMeQoOGvm/lIaUUpRoA2gJQwgb7X5q3ADkP5SGlFKUaANoCUMIG+1+atwA5D+UhpRSlGgDaAlDCBvtfmrcAOQ/lIaUUpRoA2gJQwjTWPhpL+XmP5SGlFKUaANoCUMI01j4aS/l5j+UhpRSlGUu

$$$$
24
     RDKit          3D

 50 53  0  0  1  0  0  0  0  0999 V2000
   26.9470   15.3250    9.1860 C   0  0  0  0  0  0  0  0  0  0  0  0
   27.6320   14.0950    9.0140 C   0  0  0  0  0  0  0  0  0  0  0  0
   28.7000   14.0480    9.1690 H   0  0  0  0  0  0  0  0  0  0  0  0
   26.9220   12.9310    8.6410 C   0  0  0  0  0  0  0  0  0  0  0  0
   27.4460   11.9960    8.5080 H   0  0  0  0  0  0  0  0  0  0  0  0
   25.5210   12.9940    8.4420 C   0  0  0  0  0  0  0  0  0  0  0  0
   24.8260   14.2190    8.6190 C   0  0  0  0  0  0  0  0  0  0  0  0
   25.5440   15.3800    8.9820 C   0  0  0  0  0  0  0  0  0  0  0  0
   25.0210   16.3170    9.1050 H   0  0  0  0  0  0  0  0  0  0  0  0
   24.8500   11.8510    8.0940 O   0  0  0  0  0  0  0  0  0  0  0  0
   23.4360   11.7100    8.2520 C   0  0  0  0  0  0  0  0  0  0  0  0
   22.7180   13.0050    7.7980 C   0  0  0  0  0  0  0  0  0  0  0  0
   21.6740   12.9400    8.1030 H   0  0  0  0  0  0  0  0  0  0  0  0
   22.7760   13.0630    6.7110 H   0  0  0  0  0  0  0  0  0  0  0  0
   23.3110   14.3040    8.3820 C   0  0  2  0  0  0  0  0  0  0  0  0
   23.0360   15.4900    7.4390 C   0  0  0  0  0  0  0  0  0  0  0  0
   22.3290   16.4140    8.1240 N   0  0  0  0  0  0  0  0  0  0  0  0
   22.0880   15.9170    9.3720 C   0  0  0  0  0  0  0  0  0  0  0  0
   22.5740   14.7390    9.5680 N   0  0  0  0  0  0  0  0  0  0  0  0
   22.4630   14.1980   10.4140 H   0  0  0  0  0  0  0  0  0  0  0  0
   27.6390   16.5060    9.5380 C   0  0  0  0  0  0  0  0  0  0  0  0
   21.9330   17.7200    7.5940 C   0  0  0  0  0  0  0  0  0  0  0  0
   22.2760   17.8130    6.5640 H   0  0  0  0  0  0  0  0  0  0  0  0
   22.3810   18.5090    8.1990 H   0  0  0  0  0  0  0  0  0  0  0  0
   20.8470   17.8110    7.6250 H   0  0  0  0  0  0  0  0  0  0  0  0
   21.3210   16.6530   10.2630 N   0  0  0  0  0  0  0  0  0  0  0  0
   21.0940   16.2700   11.1700 H   0  0  0  0  0  0  0  0  0  0  0  0
   20.9900   17.5720   10.0050 H   0  0  0  0  0  0  0  0  0  0  0  0
   27.0450   17.4570   10.4030 C   0  0  0  0  0  0  0  0  0  0  0  0
   26.0630   17.2760   10.8140 H   0  0  0  0  0  0  0  0  0  0  0  0
   27.7420   18.6460   10.7270 C   0  0  0  0  0  0  0  0  0  0  0  0
   29.0290   18.9000   10.1880 C   0  0  0  0  0  0  0  0  0  0  0  0
   29.5540   19.8090   10.4410 H   0  0  0  0  0  0  0  0  0  0  0  0
   29.6220   17.9540    9.3150 C   0  0  0  0  0  0  0  0  0  0  0  0
   30.6020   18.1380    8.9010 H   0  0  0  0  0  0  0  0  0  0  0  0
   28.9240   16.7660    8.9880 C   0  0  0  0  0  0  0  0  0  0  0  0
   29.3720   16.0510    8.3140 H   0  0  0  0  0  0  0  0  0  0  0  0
   23.5150   15.6060    6.3060 O   0  0  0  0  0  0  0  0  0  0  0  0
   23.0150   10.5220    7.3590 C   0  0  0  0  0  0  0  0  0  0  0  0
   23.2670   10.7410    6.3210 H   0  0  0  0  0  0  0  0  0  0  0  0
   21.9400   10.3650    7.4470 H   0  0  0  0  0  0  0  0  0  0  0  0
   23.5410    9.6230    7.6790 H   0  0  0  0  0  0  0  0  0  0  0  0
   23.0750   11.3910    9.7230 C   0  0  0  0  0  0  0  0  0  0  0  0
   23.3700   12.2260   10.3590 H   0  0  0  0  0  0  0  0  0  0  0  0
   23.6010   10.4900   10.0390 H   0  0  0  0  0  0  0  0  0  0  0  0
   22.0000   11.2320    9.8070 H   0  0  0  0  0  0  0  0  0  0  0  0
   27.1410   19.6160   11.5850 C   0  0  0  0  0  0  0  0  0  0  0  0
   25.8740   19.2890   12.0420 F   0  0  0  0  0  0  0  0  0  0  0  0
   27.0520   20.8100   10.8880 F   0  0  0  0  0  0  0  0  0  0  0  0
   27.9650   19.7850   12.6870 F   0  0  0  0  0  0  0  0  0  0  0  0
  1  2  2  0
  1  8  1  0
  1 21  1  0
  2  3  1  0
  2  4  1  0
  4  5  1  0
  4  6  2  0
  6  7  1  0
  6 10  1  0
  7  8  2  0
  7 15  1  0
  8  9  1  0
 10 11  1  0
 11 12  1  0
 11 39  1  0
 11 43  1  0
 12 13  1  0
 12 14  1  0
 15 12  1  6
 15 16  1  0
 15 19  1  0
 16 17  1  0
 16 38  2  0
 17 18  1  0
 17 22  1  0
 18 19  2  0
 18 26  1  0
 19 20  1  0
 21 29  2  0
 21 36  1  0
 22 23  1  0
 22 24  1  0
 22 25  1  0
 26 27  1  0
 26 28  1  0
 29 30  1  0
 29 31  1  0
 31 32  2  0
 31 47  1  0
 32 33  1  0
 32 34  1  0
 34 35  1  0
 34 36  2  0
 36 37  1  0
 39 40  1  0
 39 41  1  0
 39 42  1  0
 43 44  1  0
 43 45  1  0
 43 46  1  0
 47 48  1  0
 47 49  1  0
 47 50  1  0
M  CHG  1  19   1
M  END
>  <r_exp_dg>  (15) 
-9.78584

>  <experimental dG reference units>  (15) 
kcal/mol

>  <experimental dG reference field>  (15) 
r_exp_dg

>  <kJ/mol experimental dG>  (15) 
-40.94395456

>  <kcal/mol experimental dG>  (15) 
-9.78584

>  <AmberAM1BCCCache>  (15) 
gASVEQQAAAAAAABdlCiMFm51bXB5Ll9jb3JlLm11bHRpYXJyYXmUjAZzY2FsYXKUk5SMBW51bXB5lIwFZHR5cGWUk5SMAmY4lImIh5RSlChLA4wBPJROTk5K/////0r/////SwB0lGJDCP7gwQci2OK/lIaUUpRoA2gJQwiJ17lYsTjjv5SGlFKUaANoCUMI3xY/fB0g/z+UhpRSlGgDaAlDCL046zgZ9vq/lIaUUpRoA2gJQwgQbwexvLEAQJSGlFKUaANoCUMItiiXTkV1AUCUhpRSlGgDaAlDCEctIC3j/gXAlIaUUpRoA2gJQwiKQcxdbGbwv5SGlFKUaANoCUMIeN3n11s09z+UhpRSlGgDaAlDCBFMjJiW7wzAlIaUUpRoA2gJQwj9ANiax/T9P5SGlFKUaANoCUMIqlUGa36u87+UhpRSlGgDaAlDCAvBPZiEK/A/lIaUUpRoA2gJQwgLwT2YhCvwP5SGlFKUaANoCUMI921BI/cO7T+UhpRSlGgDaAlDCB1oRG6lcSBAlIaUUpRoA2gJQwiYMTPhrxwTwJSGlFKUaANoCUMIx+9CgPRlFECUhpRSlGgDaAlDCFGUu1B5NxHAlIaUUpRoA2gJQwgXj+Zk48APQJSGlFKUaANoCUMIDGZZJGm/57+UhpRSlGgDaAlDCFPLZ0otQOU/lIaUUpRoA2gJQwig3dEWErbvP5SGlFKUaANoCUMIoN3RFhK27z+UhpRSlGgDaAlDCKDd0RYStu8/lIaUUpRoA2gJQwgaHtfEeO4VwJSGlFKUaANoCUMIu5nPKUJUD0CUhpRSlGgDaAlDCLuZzylCVA9AlIaUUpRoA2gJQwhjGhms48Pqv5SGlFKUaANoCUMIbkHjj5ht/T+UhpRSlGgDaAlDCEiq3Z/mmf6/lIaUUpRoA2gJQwitSUEXF+Hov5SGlFKUaANoCUMI3xY/fB0g/z+UhpRSlGgDaAlDCDd2n6p1gvi/lIaUUpRoA2gJQwhXVPPteaz8P5SGlFKUaANoCUMI/BYoSvEY8r+UhpRSlGgDaAlDCEabrw5H2Pk/lIaUUpRoA2gJQwjz0Ea+F/IVwJSGlFKUaANoCUMIF2JlnWM69b+UhpRSlGgDaAlDCMkEYlvYGug/lIaUUpRoA2gJQwjJBGJb2BroP5SGlFKUaANoCUMIyQRiW9ga6D+UhpRSlGgDaAlDCBdiZZ1jOvW/lIaUUpRoA2gJQwjJBGJb2BroP5SGlFKUaANoCUMIyQRiW9ga6D+UhpRSlGgDaAlDCMkEYlvYGug/lIaUUpRoA2gJQwialPFefDMgQJSGlFKUaANoCUMI5Mg5vl2mBcCUhpRSlGgDaAlDCOTIOb5dpgXAlIaUUpRoA2gJQwjkyDm+XaYFwJSGlFKUZS4=

$$$$
25
     RDKit          3D

 51 54  0  0  1  0  0  0  0  0999 V2000
   26.9470   15.3250    9.1860 C   0  0  0  0  0  0  0  0  0  0  0  0
   27.6320   14.0950    9.0140 C   0  0  0  0  0  0  0  0  0  0  0  0
   28.7000   14.0480    9.1690 H   0  0  0  0  0  0  0  0  0  0  0  0
   26.9220   12.9310    8.6410 C   0  0  0  0  0  0  0  0  0  0  0  0
   27.4460   11.9960    8.5080 H   0  0  0  0  0  0  0  0  0  0  0  0
   25.5210   12.9940    8.4420 C   0  0  0  0  0  0  0  0  0  0  0  0
   24.8260   14.2190    8.6190 C   0  0  0  0  0  0  0  0  0  0  0  0
   25.5440   15.3800    8.9820 C   0  0  0  0  0  0  0  0  0  0  0  0
   25.0210   16.3170    9.1050 H   0  0  0  0  0  0  0  0  0  0  0  0
   24.8500   11.8510    8.0940 O   0  0  0  0  0  0  0  0  0  0  0  0
   23.4360   11.7100    8.2520 C   0  0  0  0  0  0  0  0  0  0  0  0
   22.7180   13.0050    7.7980 C   0  0  0  0  0  0  0  0  0  0  0  0
   21.6740   12.9400    8.1030 H   0  0  0  0  0  0  0  0  0  0  0  0
   22.7760   13.0630    6.7110 H   0  0  0  0  0  0  0  0  0  0  0  0
   23.3110   14.3040    8.3820 C   0  0  2  0  0  0  0  0  0  0  0  0
   23.0360   15.4900    7.4390 C   0  0  0  0  0  0  0  0  0  0  0  0
   22.3290   16.4140    8.1240 N   0  0  0  0  0  0  0  0  0  0  0  0
   22.0880   15.9170    9.3720 C   0  0  0  0  0  0  0  0  0  0  0  0
   22.5740   14.7390    9.5680 N   0  0  0  0  0  0  0  0  0  0  0  0
   22.4630   14.1980   10.4140 H   0  0  0  0  0  0  0  0  0  0  0  0
   27.6390   16.5060    9.5380 C   0  0  0  0  0  0  0  0  0  0  0  0
   21.9330   17.7200    7.5940 C   0  0  0  0  0  0  0  0  0  0  0  0
   22.2760   17.8130    6.5640 H   0  0  0  0  0  0  0  0  0  0  0  0
   22.3810   18.5090    8.1990 H   0  0  0  0  0  0  0  0  0  0  0  0
   20.8470   17.8110    7.6250 H   0  0  0  0  0  0  0  0  0  0  0  0
   21.3210   16.6530   10.2630 N   0  0  0  0  0  0  0  0  0  0  0  0
   21.0940   16.2700   11.1700 H   0  0  0  0  0  0  0  0  0  0  0  0
   20.9900   17.5720   10.0050 H   0  0  0  0  0  0  0  0  0  0  0  0
   27.0450   17.4570   10.4030 C   0  0  0  0  0  0  0  0  0  0  0  0
   26.0630   17.2760   10.8140 H   0  0  0  0  0  0  0  0  0  0  0  0
   27.7420   18.6460   10.7270 C   0  0  0  0  0  0  0  0  0  0  0  0
   29.0290   18.9000   10.1880 C   0  0  0  0  0  0  0  0  0  0  0  0
   29.5540   19.8090   10.4410 H   0  0  0  0  0  0  0  0  0  0  0  0
   29.6220   17.9540    9.3150 C   0  0  0  0  0  0  0  0  0  0  0  0
   30.6020   18.1380    8.9010 H   0  0  0  0  0  0  0  0  0  0  0  0
   28.9240   16.7660    8.9880 C   0  0  0  0  0  0  0  0  0  0  0  0
   29.3720   16.0510    8.3140 H   0  0  0  0  0  0  0  0  0  0  0  0
   23.5150   15.6060    6.3060 O   0  0  0  0  0  0  0  0  0  0  0  0
   23.0150   10.5220    7.3590 C   0  0  0  0  0  0  0  0  0  0  0  0
   23.2670   10.7410    6.3210 H   0  0  0  0  0  0  0  0  0  0  0  0
   21.9400   10.3650    7.4470 H   0  0  0  0  0  0  0  0  0  0  0  0
   23.5410    9.6230    7.6790 H   0  0  0  0  0  0  0  0  0  0  0  0
   23.0750   11.3910    9.7230 C   0  0  0  0  0  0  0  0  0  0  0  0
   23.3700   12.2260   10.3590 H   0  0  0  0  0  0  0  0  0  0  0  0
   23.6010   10.4900   10.0390 H   0  0  0  0  0  0  0  0  0  0  0  0
   22.0000   11.2320    9.8070 H   0  0  0  0  0  0  0  0  0  0  0  0
   27.1410   19.6160   11.5850 S   0  0  0  0  0  0  0  0  0  0  0  0
   27.9590   20.7470   11.8850 C   0  0  0  0  0  0  0  0  0  0  0  0
   27.4150   21.4250   12.5430 H   0  0  0  0  0  0  0  0  0  0  0  0
   28.2170   21.2640   10.9610 H   0  0  0  0  0  0  0  0  0  0  0  0
   28.8710   20.4140   12.3810 H   0  0  0  0  0  0  0  0  0  0  0  0
  1  2  2  0
  1  8  1  0
  1 21  1  0
  2  3  1  0
  2  4  1  0
  4  5  1  0
  4  6  2  0
  6  7  1  0
  6 10  1  0
  7  8  2  0
  7 15  1  0
  8  9  1  0
 10 11  1  0
 11 12  1  0
 11 39  1  0
 11 43  1  0
 12 13  1  0
 12 14  1  0
 15 12  1  6
 15 16  1  0
 15 19  1  0
 16 17  1  0
 16 38  2  0
 17 18  1  0
 17 22  1  0
 18 19  2  0
 18 26  1  0
 19 20  1  0
 21 29  2  0
 21 36  1  0
 22 23  1  0
 22 24  1  0
 22 25  1  0
 26 27  1  0
 26 28  1  0
 29 30  1  0
 29 31  1  0
 31 32  2  0
 31 47  1  0
 32 33  1  0
 32 34  1  0
 34 35  1  0
 34 36  2  0
 36 37  1  0
 39 40  1  0
 39 41  1  0
 39 42  1  0
 43 44  1  0
 43 45  1  0
 43 46  1  0
 47 48  1  0
 48 49  1  0
 48 50  1  0
 48 51  1  0
M  CHG  1  19   1
M  END
>  <r_exp_dg>  (16) 
-8.87004

>  <experimental dG reference units>  (16) 
kcal/mol

>  <experimental dG reference field>  (16) 
r_exp_dg

>  <kJ/mol experimental dG>  (16) 
-37.11224736

>  <kcal/mol experimental dG>  (16) 
-8.87004

>  <AmberAM1BCCCache>  (16) 
gASVJAQAAAAAAABdlCiMFm51bXB5Ll9jb3JlLm11bHRpYXJyYXmUjAZzY2FsYXKUk5SMBW51bXB5lIwFZHR5cGWUk5SMAmY4lImIh5RSlChLA4wBPJROTk5K/////0r/////SwB0lGJDCOz6pWGv8d6/lIaUUpRoA2gJQwhZqIqJ4d3iv5SGlFKUaANoCUMI7LfeEvbs/j+UhpRSlGgDaAlDCIGJv5sXuvu/lIaUUpRoA2gJQwiuRp1/vU8AQJSGlFKUaANoCUMIEAWxdP7iAECUhpRSlGgDaAlDCKlVil7iYAbAlIaUUpRoA2gJQwjPZnlK6rDvv5SGlFKUaANoCUMIm2t3EFPC9z+UhpRSlGgDaAlDCFyHBih3kAzAlIaUUpRoA2gJQwh+q3/gEGH9P5SGlFKUaANoCUMIsqFWdsSi9L+UhpRSlGgDaAlDCLcrb0CVI/I/lIaUUpRoA2gJQwi3K29AlSPyP5SGlFKUaANoCUMIz+iwakxl6j+UhpRSlGgDaAlDCEvZZUptiSBAlIaUUpRoA2gJQwjgTC79QwUTwJSGlFKUaANoCUMI3NYJkDxlFECUhpRSlGgDaAlDCA6sEytDRBHAlIaUUpRoA2gJQwj8YfjbK48PQJSGlFKUaANoCUMI7PqlYa/x3r+UhpRSlGgDaAlDCPgDn8htOuU/lIaUUpRoA2gJQwilzcIMK5DvP5SGlFKUaANoCUMIpc3CDCuQ7z+UhpRSlGgDaAlDCKXNwgwrkO8/lIaUUpRoA2gJQwhLMoxdeB8WwJSGlFKUaANoCUMIQmofda46D0CUhpRSlGgDaAlDCEJqH3WuOg9AlIaUUpRoA2gJQwgxPViZdI/0v5SGlFKUaANoCUMI2f6aM8MY/D+UhpRSlGgDaAlDCM4Cw7QkYqE/lIaUUpRoA2gJQwi1y/dkLBb5v5SGlFKUaANoCUMIOBuzQBX3+j+UhpRSlGgDaAlDCBtQaPdVzvO/lIaUUpRoA2gJQwjeMkf2rgX6P5SGlFKUaANoCUMIa5zP+fj4+r+UhpRSlGgDaAlDCG+Rl8wVQPY/lIaUUpRoA2gJQwj28MUxZKoVwJSGlFKUaANoCUMI9NPVZGys9L+UhpRSlGgDaAlDCLMC0qxTQuY/lIaUUpRoA2gJQwizAtKsU0LmP5SGlFKUaANoCUMIswLSrFNC5j+UhpRSlGgDaAlDCPTT1WRsrPS/lIaUUpRoA2gJQwizAtKsU0LmP5SGlFKUaANoCUMIswLSrFNC5j+UhpRSlGgDaAlDCLMC0qxTQuY/lIaUUpRoA2gJQwjLuOcGS9f5v5SGlFKUaANoCUMIdrK5wm+s7L+UhpRSlGgDaAlDCNkP+9U/7Ow/lIaUUpRoA2gJQwjZD/vVP+zsP5SGlFKUaANoCUMI2Q/71T/s7D+UhpRSlGUu

$$$$
26
     RDKit          3D

 51 54  0  0  1  0  0  0  0  0999 V2000
   26.9470   15.3250    9.1860 C   0  0  0  0  0  0  0  0  0  0  0  0
   27.6320   14.0950    9.0140 C   0  0  0  0  0  0  0  0  0  0  0  0
   28.7000   14.0480    9.1690 H   0  0  0  0  0  0  0  0  0  0  0  0
   26.9220   12.9310    8.6410 C   0  0  0  0  0  0  0  0  0  0  0  0
   27.4460   11.9960    8.5080 H   0  0  0  0  0  0  0  0  0  0  0  0
   25.5210   12.9940    8.4420 C   0  0  0  0  0  0  0  0  0  0  0  0
   24.8260   14.2190    8.6190 C   0  0  0  0  0  0  0  0  0  0  0  0
   25.5440   15.3800    8.9820 C   0  0  0  0  0  0  0  0  0  0  0  0
   25.0210   16.3170    9.1050 H   0  0  0  0  0  0  0  0  0  0  0  0
   24.8500   11.8510    8.0940 O   0  0  0  0  0  0  0  0  0  0  0  0
   23.4360   11.7100    8.2520 C   0  0  0  0  0  0  0  0  0  0  0  0
   22.7180   13.0050    7.7980 C   0  0  0  0  0  0  0  0  0  0  0  0
   21.6740   12.9400    8.1030 H   0  0  0  0  0  0  0  0  0  0  0  0
   22.7760   13.0630    6.7110 H   0  0  0  0  0  0  0  0  0  0  0  0
   23.3110   14.3040    8.3820 C   0  0  2  0  0  0  0  0  0  0  0  0
   23.0360   15.4900    7.4390 C   0  0  0  0  0  0  0  0  0  0  0  0
   22.3290   16.4140    8.1240 N   0  0  0  0  0  0  0  0  0  0  0  0
   22.0880   15.9170    9.3720 C   0  0  0  0  0  0  0  0  0  0  0  0
   22.5740   14.7390    9.5680 N   0  0  0  0  0  0  0  0  0  0  0  0
   22.4630   14.1980   10.4140 H   0  0  0  0  0  0  0  0  0  0  0  0
   27.6390   16.5060    9.5380 C   0  0  0  0  0  0  0  0  0  0  0  0
   21.9330   17.7200    7.5940 C   0  0  0  0  0  0  0  0  0  0  0  0
   22.2760   17.8130    6.5640 H   0  0  0  0  0  0  0  0  0  0  0  0
   22.3810   18.5090    8.1990 H   0  0  0  0  0  0  0  0  0  0  0  0
   20.8470   17.8110    7.6250 H   0  0  0  0  0  0  0  0  0  0  0  0
   21.3210   16.6530   10.2630 N   0  0  0  0  0  0  0  0  0  0  0  0
   21.0940   16.2700   11.1700 H   0  0  0  0  0  0  0  0  0  0  0  0
   20.9900   17.5720   10.0050 H   0  0  0  0  0  0  0  0  0  0  0  0
   27.0450   17.4570   10.4030 C   0  0  0  0  0  0  0  0  0  0  0  0
   26.0630   17.2760   10.8140 H   0  0  0  0  0  0  0  0  0  0  0  0
   27.7420   18.6460   10.7270 C   0  0  0  0  0  0  0  0  0  0  0  0
   29.0290   18.9000   10.1880 C   0  0  0  0  0  0  0  0  0  0  0  0
   29.5540   19.8090   10.4410 H   0  0  0  0  0  0  0  0  0  0  0  0
   29.6220   17.9540    9.3150 C   0  0  0  0  0  0  0  0  0  0  0  0
   30.6020   18.1380    8.9010 H   0  0  0  0  0  0  0  0  0  0  0  0
   28.9240   16.7660    8.9880 C   0  0  0  0  0  0  0  0  0  0  0  0
   29.3720   16.0510    8.3140 H   0  0  0  0  0  0  0  0  0  0  0  0
   23.5150   15.6060    6.3060 O   0  0  0  0  0  0  0  0  0  0  0  0
   23.0150   10.5220    7.3590 C   0  0  0  0  0  0  0  0  0  0  0  0
   23.2670   10.7410    6.3210 H   0  0  0  0  0  0  0  0  0  0  0  0
   21.9400   10.3650    7.4470 H   0  0  0  0  0  0  0  0  0  0  0  0
   23.5410    9.6230    7.6790 H   0  0  0  0  0  0  0  0  0  0  0  0
   23.0750   11.3910    9.7230 C   0  0  0  0  0  0  0  0  0  0  0  0
   23.3700   12.2260   10.3590 H   0  0  0  0  0  0  0  0  0  0  0  0
   23.6010   10.4900   10.0390 H   0  0  0  0  0  0  0  0  0  0  0  0
   22.0000   11.2320    9.8070 H   0  0  0  0  0  0  0  0  0  0  0  0
   27.1410   19.6160   11.5850 O   0  0  0  0  0  0  0  0  0  0  0  0
   27.9590   20.7470   11.8850 C   0  0  0  0  0  0  0  0  0  0  0  0
   27.2670   21.6090   12.7220 F   0  0  0  0  0  0  0  0  0  0  0  0
   28.2870   21.4050   10.7100 F   0  0  0  0  0  0  0  0  0  0  0  0
   28.8710   20.4140   12.3810 H   0  0  0  0  0  0  0  0  0  0  0  0
  1  2  2  0
  1  8  1  0
  1 21  1  0
  2  3  1  0
  2  4  1  0
  4  5  1  0
  4  6  2  0
  6  7  1  0
  6 10  1  0
  7  8  2  0
  7 15  1  0
  8  9  1  0
 10 11  1  0
 11 12  1  0
 11 39  1  0
 11 43  1  0
 12 13  1  0
 12 14  1  0
 15 12  1  6
 15 16  1  0
 15 19  1  0
 16 17  1  0
 16 38  2  0
 17 18  1  0
 17 22  1  0
 18 19  2  0
 18 26  1  0
 19 20  1  0
 21 29  2  0
 21 36  1  0
 22 23  1  0
 22 24  1  0
 22 25  1  0
 26 27  1  0
 26 28  1  0
 29 30  1  0
 29 31  1  0
 31 32  2  0
 31 47  1  0
 32 33  1  0
 32 34  1  0
 34 35  1  0
 34 36  2  0
 36 37  1  0
 39 40  1  0
 39 41  1  0
 39 42  1  0
 43 44  1  0
 43 45  1  0
 43 46  1  0
 47 48  1  0
 48 49  1  0
 48 50  1  0
 48 51  1  0
M  CHG  1  19   1
M  END
>  <r_exp_dg>  (17) 
-10.3651

>  <experimental dG reference units>  (17) 
kcal/mol

>  <experimental dG reference field>  (17) 
r_exp_dg

>  <kJ/mol experimental dG>  (17) 
-43.3675784

>  <kcal/mol experimental dG>  (17) 
-10.3651

>  <AmberAM1BCCCache>  (17) 
gASVJAQAAAAAAABdlCiMFm51bXB5Ll9jb3JlLm11bHRpYXJyYXmUjAZzY2FsYXKUk5SMBW51bXB5lIwFZHR5cGWUk5SMAmY4lImIh5RSlChLA4wBPJROTk5K/////0r/////SwB0lGJDCJPa6WDARt2/lIaUUpRoA2gJQwjILRJYtkbmv5SGlFKUaANoCUMIAsAN07FX/z+UhpRSlGgDaAlDCEG0W4hZSPm/lIaUUpRoA2gJQwhFzleh5WAAQJSGlFKUaANoCUMIbK92B2rr+z+UhpRSlGgDaAlDCPJ96LLkZgTAlIaUUpRoA2gJQwgalM87z2fsv5SGlFKUaANoCUMIxEZAkbf3+T+UhpRSlGgDaAlDCMK+9FIoFw/AlIaUUpRoA2gJQwght1Hilqf9P5SGlFKUaANoCUMIzaezvDGn87+UhpRSlGgDaAlDCDnarscKBvE/lIaUUpRoA2gJQwg52q7HCgbxP5SGlFKUaANoCUMIczbDXCDH6D+UhpRSlGgDaAlDCOU6XM27kCBAlIaUUpRoA2gJQwjyhL2f7iYTwJSGlFKUaANoCUMI/des7/iIFECUhpRSlGgDaAlDCGXsyWZwERHAlIaUUpRoA2gJQwi96uBEwjYQQJSGlFKUaANoCUMID0xKlQjA2L+UhpRSlGgDaAlDCDwbQ8x5x+U/lIaUUpRoA2gJQwifPL5wQnTvP5SGlFKUaANoCUMInzy+cEJ07z+UhpRSlGgDaAlDCJ88vnBCdO8/lIaUUpRoA2gJQwhGcIBtyQQWwJSGlFKUaANoCUMIQHHpi99RD0CUhpRSlGgDaAlDCEBx6YvfUQ9AlIaUUpRoA2gJQwj93+Cxwon3v5SGlFKUaANoCUMIA9pjtCdO/j+UhpRSlGgDaAlDCFwQiQmtDfg/lIaUUpRoA2gJQwj3+uzizm8AwJSGlFKUaANoCUMIYvZ7wXks/T+UhpRSlGgDaAlDCE13YaLNgPG/lIaUUpRoA2gJQwhNI+IA0WH7P5SGlFKUaANoCUMI94QzHSYr+7+UhpRSlGgDaAlDCDx3SRLZCPg/lIaUUpRoA2gJQwhrY2jsYwUWwJSGlFKUaANoCUMIjEYyQgF49L+UhpRSlGgDaAlDCEU5udiH4+Y/lIaUUpRoA2gJQwhFObnYh+PmP5SGlFKUaANoCUMIRTm52Ifj5j+UhpRSlGgDaAlDCIxGMkIBePS/lIaUUpRoA2gJQwhFObnYh+PmP5SGlFKUaANoCUMIRTm52Ifj5j+UhpRSlGgDaAlDCEU5udiH4+Y/lIaUUpRoA2gJQwgq8ptkQVkRwJSGlFKUaANoCUMI3gVgmBjlG0CUhpRSlGgDaAlDCDM0aH54ygTAlIaUUpRoA2gJQwgzNGh+eMoEwJSGlFKUaANoCUMItSxYfbzW8j+UhpRSlGUu

$$$$
27
     RDKit          3D

 47 50  0  0  1  0  0  0  0  0999 V2000
   26.9470   15.3250    9.1860 C   0  0  0  0  0  0  0  0  0  0  0  0
   27.6320   14.0950    9.0140 C   0  0  0  0  0  0  0  0  0  0  0  0
   28.7000   14.0480    9.1690 H   0  0  0  0  0  0  0  0  0  0  0  0
   26.9220   12.9310    8.6410 C   0  0  0  0  0  0  0  0  0  0  0  0
   27.4460   11.9960    8.5080 H   0  0  0  0  0  0  0  0  0  0  0  0
   25.5210   12.9940    8.4420 C   0  0  0  0  0  0  0  0  0  0  0  0
   24.8260   14.2190    8.6190 C   0  0  0  0  0  0  0  0  0  0  0  0
   25.5440   15.3800    8.9820 C   0  0  0  0  0  0  0  0  0  0  0  0
   25.0210   16.3170    9.1050 H   0  0  0  0  0  0  0  0  0  0  0  0
   24.8500   11.8510    8.0940 O   0  0  0  0  0  0  0  0  0  0  0  0
   23.4360   11.7100    8.2520 C   0  0  0  0  0  0  0  0  0  0  0  0
   22.7180   13.0050    7.7980 C   0  0  0  0  0  0  0  0  0  0  0  0
   21.6740   12.9400    8.1030 H   0  0  0  0  0  0  0  0  0  0  0  0
   22.7760   13.0630    6.7110 H   0  0  0  0  0  0  0  0  0  0  0  0
   23.3110   14.3040    8.3820 C   0  0  2  0  0  0  0  0  0  0  0  0
   23.0360   15.4900    7.4390 C   0  0  0  0  0  0  0  0  0  0  0  0
   22.3290   16.4140    8.1240 N   0  0  0  0  0  0  0  0  0  0  0  0
   22.0880   15.9170    9.3720 C   0  0  0  0  0  0  0  0  0  0  0  0
   22.5740   14.7390    9.5680 N   0  0  0  0  0  0  0  0  0  0  0  0
   22.4630   14.1980   10.4140 H   0  0  0  0  0  0  0  0  0  0  0  0
   27.6390   16.5060    9.5380 C   0  0  0  0  0  0  0  0  0  0  0  0
   21.9330   17.7200    7.5940 C   0  0  0  0  0  0  0  0  0  0  0  0
   22.2760   17.8130    6.5640 H   0  0  0  0  0  0  0  0  0  0  0  0
   22.3810   18.5090    8.1990 H   0  0  0  0  0  0  0  0  0  0  0  0
   20.8470   17.8110    7.6250 H   0  0  0  0  0  0  0  0  0  0  0  0
   21.3210   16.6530   10.2630 N   0  0  0  0  0  0  0  0  0  0  0  0
   21.0940   16.2700   11.1700 H   0  0  0  0  0  0  0  0  0  0  0  0
   20.9900   17.5720   10.0050 H   0  0  0  0  0  0  0  0  0  0  0  0
   27.0450   17.4570   10.4030 C   0  0  0  0  0  0  0  0  0  0  0  0
   26.0630   17.2760   10.8140 H   0  0  0  0  0  0  0  0  0  0  0  0
   27.7420   18.6460   10.7270 C   0  0  0  0  0  0  0  0  0  0  0  0
   27.1610   19.5710   11.5800 F   0  0  0  0  0  0  0  0  0  0  0  0
   29.0290   18.9000   10.1880 C   0  0  0  0  0  0  0  0  0  0  0  0
   29.5540   19.8090   10.4410 H   0  0  0  0  0  0  0  0  0  0  0  0
   29.6220   17.9540    9.3150 C   0  0  0  0  0  0  0  0  0  0  0  0
   30.6020   18.1380    8.9010 H   0  0  0  0  0  0  0  0  0  0  0  0
   28.9240   16.7660    8.9880 C   0  0  0  0  0  0  0  0  0  0  0  0
   29.3720   16.0510    8.3140 H   0  0  0  0  0  0  0  0  0  0  0  0
   23.5150   15.6060    6.3060 O   0  0  0  0  0  0  0  0  0  0  0  0
   23.0150   10.5220    7.3590 C   0  0  0  0  0  0  0  0  0  0  0  0
   23.2670   10.7410    6.3210 H   0  0  0  0  0  0  0  0  0  0  0  0
   21.9400   10.3650    7.4470 H   0  0  0  0  0  0  0  0  0  0  0  0
   23.5410    9.6230    7.6790 H   0  0  0  0  0  0  0  0  0  0  0  0
   23.0750   11.3910    9.7230 C   0  0  0  0  0  0  0  0  0  0  0  0
   23.3700   12.2260   10.3590 H   0  0  0  0  0  0  0  0  0  0  0  0
   23.6010   10.4900   10.0390 H   0  0  0  0  0  0  0  0  0  0  0  0
   22.0000   11.2320    9.8070 H   0  0  0  0  0  0  0  0  0  0  0  0
  1  2  2  0
  1  8  1  0
  1 21  1  0
  2  3  1  0
  2  4  1  0
  4  5  1  0
  4  6  2  0
  6  7  1  0
  6 10  1  0
  7  8  2  0
  7 15  1  0
  8  9  1  0
 10 11  1  0
 11 12  1  0
 11 40  1  0
 11 44  1  0
 12 13  1  0
 12 14  1  0
 15 12  1  6
 15 16  1  0
 15 19  1  0
 16 17  1  0
 16 39  2  0
 17 18  1  0
 17 22  1  0
 18 19  2  0
 18 26  1  0
 19 20  1  0
 21 29  2  0
 21 37  1  0
 22 23  1  0
 22 24  1  0
 22 25  1  0
 26 27  1  0
 26 28  1  0
 29 30  1  0
 29 31  1  0
 31 32  1  0
 31 33  2  0
 33 34  1  0
 33 35  1  0
 35 36  1  0
 35 37  2  0
 37 38  1  0
 40 41  1  0
 40 42  1  0
 40 43  1  0
 44 45  1  0
 44 46  1  0
 44 47  1  0
M  CHG  1  19   1
M  END
>  <r_exp_dg>  (18) 
-9.61238

>  <experimental dG reference units>  (18) 
kcal/mol

>  <experimental dG reference field>  (18) 
r_exp_dg

>  <kJ/mol experimental dG>  (18) 
-40.21819792

>  <kcal/mol experimental dG>  (18) 
-9.61238

>  <AmberAM1BCCCache>  (18) 
gASV2AMAAAAAAABdlCiMFm51bXB5Ll9jb3JlLm11bHRpYXJyYXmUjAZzY2FsYXKUk5SMBW51bXB5lIwFZHR5cGWUk5SMAmY4lImIh5RSlChLA4wBPJROTk5K/////0r/////SwB0lGJDCO80iksU9eC/lIaUUpRoA2gJQwhd1jl1rbrkv5SGlFKUaANoCUMIRQlzZ/bv/j+UhpRSlGgDaAlDCP1dSwPaNPq/lIaUUpRoA2gJQwigamNShYEAQJSGlFKUaANoCUMIGjC9ylrMAECUhpRSlGgDaAlDCKFE1On7bQXAlIaUUpRoA2gJQwgkT5hyk5bwv5SGlFKUaANoCUMIU9kjcqWj9j+UhpRSlGgDaAlDCDxVtE6G7wzAlIaUUpRoA2gJQwh54Psnv4X+P5SGlFKUaANoCUMILnbi3YYd87+UhpRSlGgDaAlDCEGD+xMN1e4/lIaUUpRoA2gJQwhBg/sTDdXuP5SGlFKUaANoCUMIOFyxqBlO7D+UhpRSlGgDaAlDCA3k6F/EgyBAlIaUUpRoA2gJQwhFPY0/PNQSwJSGlFKUaANoCUMIBOpNjw5yFECUhpRSlGgDaAlDCImWDQCVTxHAlIaUUpRoA2gJQwhij8ZdZGAPQJSGlFKUaANoCUMIwV/lXZob2L+UhpRSlGgDaAlDCCCwzyDf3+Q/lIaUUpRoA2gJQwjiZuMGu/bvP5SGlFKUaANoCUMI4mbjBrv27z+UhpRSlGgDaAlDCOJm4wa79u8/lIaUUpRoA2gJQwiBIQqKgvoVwJSGlFKUaANoCUMIv5GIiUBID0CUhpRSlGgDaAlDCL+RiIlASA9AlIaUUpRoA2gJQwgPF4/iDAn9v5SGlFKUaANoCUMIXyoPzACe/T+UhpRSlGgDaAlDCKDhk6RqZPo/lIaUUpRoA2gJQwhVAsB9Yrz3v5SGlFKUaANoCUMI+CmfQO5H/L+UhpRSlGgDaAlDCAAO976uv/4/lIaUUpRoA2gJQwisEeQANwrzv5SGlFKUaANoCUMIYl67juyK+z+UhpRSlGgDaAlDCFdGt01AJvu/lIaUUpRoA2gJQwivwY+8C5X3P5SGlFKUaANoCUMIWuEkdFx5FcCUhpRSlGgDaAlDCMl2dzUfIvW/lIaUUpRoA2gJQwgGieJIAmrnP5SGlFKUaANoCUMIBoniSAJq5z+UhpRSlGgDaAlDCAaJ4kgCauc/lIaUUpRoA2gJQwjJdnc1HyL1v5SGlFKUaANoCUMIBoniSAJq5z+UhpRSlGgDaAlDCAaJ4kgCauc/lIaUUpRoA2gJQwgGieJIAmrnP5SGlFKUZS4=

$$$$
28
     RDKit          3D

 53 56  0  0  1  0  0  0  0  0999 V2000
   26.9470   15.3250    9.1860 C   0  0  0  0  0  0  0  0  0  0  0  0
   27.6320   14.0950    9.0140 C   0  0  0  0  0  0  0  0  0  0  0  0
   28.7000   14.0480    9.1690 H   0  0  0  0  0  0  0  0  0  0  0  0
   26.9220   12.9310    8.6410 C   0  0  0  0  0  0  0  0  0  0  0  0
   27.4460   11.9960    8.5080 H   0  0  0  0  0  0  0  0  0  0  0  0
   25.5210   12.9940    8.4420 C   0  0  0  0  0  0  0  0  0  0  0  0
   24.8260   14.2190    8.6190 C   0  0  0  0  0  0  0  0  0  0  0  0
   25.5440   15.3800    8.9820 C   0  0  0  0  0  0  0  0  0  0  0  0
   25.0210   16.3170    9.1050 H   0  0  0  0  0  0  0  0  0  0  0  0
   24.8500   11.8510    8.0940 O   0  0  0  0  0  0  0  0  0  0  0  0
   23.4360   11.7100    8.2520 C   0  0  0  0  0  0  0  0  0  0  0  0
   22.7180   13.0050    7.7980 C   0  0  0  0  0  0  0  0  0  0  0  0
   21.6740   12.9400    8.1030 H   0  0  0  0  0  0  0  0  0  0  0  0
   22.7760   13.0630    6.7110 H   0  0  0  0  0  0  0  0  0  0  0  0
   23.3110   14.3040    8.3820 C   0  0  2  0  0  0  0  0  0  0  0  0
   23.0360   15.4900    7.4390 C   0  0  0  0  0  0  0  0  0  0  0  0
   22.3290   16.4140    8.1240 N   0  0  0  0  0  0  0  0  0  0  0  0
   22.0880   15.9170    9.3720 C   0  0  0  0  0  0  0  0  0  0  0  0
   22.5740   14.7390    9.5680 N   0  0  0  0  0  0  0  0  0  0  0  0
   22.4630   14.1980   10.4140 H   0  0  0  0  0  0  0  0  0  0  0  0
   21.9330   17.7200    7.5940 C   0  0  0  0  0  0  0  0  0  0  0  0
   22.2760   17.8130    6.5640 H   0  0  0  0  0  0  0  0  0  0  0  0
   22.3810   18.5090    8.1990 H   0  0  0  0  0  0  0  0  0  0  0  0
   20.8470   17.8110    7.6250 H   0  0  0  0  0  0  0  0  0  0  0  0
   21.3210   16.6530   10.2630 N   0  0  0  0  0  0  0  0  0  0  0  0
   21.0940   16.2700   11.1700 H   0  0  0  0  0  0  0  0  0  0  0  0
   20.9900   17.5720   10.0050 H   0  0  0  0  0  0  0  0  0  0  0  0
   23.5150   15.6060    6.3060 O   0  0  0  0  0  0  0  0  0  0  0  0
   23.0150   10.5220    7.3590 C   0  0  0  0  0  0  0  0  0  0  0  0
   23.2670   10.7410    6.3210 H   0  0  0  0  0  0  0  0  0  0  0  0
   21.9400   10.3650    7.4470 H   0  0  0  0  0  0  0  0  0  0  0  0
   23.5410    9.6230    7.6790 H   0  0  0  0  0  0  0  0  0  0  0  0
   23.0750   11.3910    9.7230 C   0  0  0  0  0  0  0  0  0  0  0  0
   23.3700   12.2260   10.3590 H   0  0  0  0  0  0  0  0  0  0  0  0
   23.6010   10.4900   10.0390 H   0  0  0  0  0  0  0  0  0  0  0  0
   22.0000   11.2320    9.8070 H   0  0  0  0  0  0  0  0  0  0  0  0
   28.9310   18.1330   11.5680 C   0  0  0  0  0  0  0  0  0  0  0  0
   29.4680   19.0480   11.8410 H   0  0  0  0  0  0  0  0  0  0  0  0
   28.8240   17.5400   12.4850 H   0  0  0  0  0  0  0  0  0  0  0  0
   29.7470   17.3440   10.5470 C   0  0  0  0  0  0  0  0  0  0  0  0
   30.7030   17.0450   10.9900 H   0  0  0  0  0  0  0  0  0  0  0  0
   29.9780   17.9880    9.6900 H   0  0  0  0  0  0  0  0  0  0  0  0
   28.9960   16.1060   10.0620 C   0  0  0  0  0  0  0  0  0  0  0  0
   28.8920   15.3950   10.8920 H   0  0  0  0  0  0  0  0  0  0  0  0
   29.5780   15.6040    9.2810 H   0  0  0  0  0  0  0  0  0  0  0  0
   27.6130   16.4610    9.5250 C   0  0  0  0  0  0  0  0  0  0  0  0
   27.7200   17.0540    8.6070 H   0  0  0  0  0  0  0  0  0  0  0  0
   26.7980   17.2500   10.5450 C   0  0  0  0  0  0  0  0  0  0  0  0
   26.5660   16.6060   11.4030 H   0  0  0  0  0  0  0  0  0  0  0  0
   25.8410   17.5490   10.1020 H   0  0  0  0  0  0  0  0  0  0  0  0
   27.5480   18.4880   11.0300 C   0  0  0  0  0  0  0  0  0  0  0  0
   26.9660   18.9900   11.8120 H   0  0  0  0  0  0  0  0  0  0  0  0
   27.6520   19.1990   10.2010 H   0  0  0  0  0  0  0  0  0  0  0  0
  1  2  2  0
  1  8  1  0
  1 46  1  0
  2  3  1  0
  2  4  1  0
  4  5  1  0
  4  6  2  0
  6  7  1  0
  6 10  1  0
  7  8  2  0
  7 15  1  0
  8  9  1  0
 10 11  1  0
 11 12  1  0
 11 29  1  0
 11 33  1  0
 12 13  1  0
 12 14  1  0
 15 12  1  6
 15 16  1  0
 15 19  1  0
 16 17  1  0
 16 28  2  0
 17 18  1  0
 17 21  1  0
 18 19  2  0
 18 25  1  0
 19 20  1  0
 21 22  1  0
 21 23  1  0
 21 24  1  0
 25 26  1  0
 25 27  1  0
 29 30  1  0
 29 31  1  0
 29 32  1  0
 33 34  1  0
 33 35  1  0
 33 36  1  0
 37 38  1  0
 37 39  1  0
 37 40  1  0
 37 51  1  0
 40 41  1  0
 40 42  1  0
 40 43  1  0
 43 44  1  0
 43 45  1  0
 43 46  1  0
 46 47  1  0
 46 48  1  0
 48 49  1  0
 48 50  1  0
 48 51  1  0
 51 52  1  0
 51 53  1  0
M  CHG  1  19   1
M  END
>  <r_exp_dg>  (19) 
-8.997

>  <experimental dG reference units>  (19) 
kcal/mol

>  <experimental dG reference field>  (19) 
r_exp_dg

>  <kJ/mol experimental dG>  (19) 
-37.643448

>  <kcal/mol experimental dG>  (19) 
-8.997

>  <AmberAM1BCCCache>  (19) 
gASVSgQAAAAAAABdlCiMFm51bXB5Ll9jb3JlLm11bHRpYXJyYXmUjAZzY2FsYXKUk5SMBW51bXB5lIwFZHR5cGWUk5SMAmY4lImIh5RSlChLA4wBPJROTk5K/////0r/////SwB0lGJDCAW2SXdisO6/lIaUUpRoA2gJQwjF+IRliublv5SGlFKUaANoCUMIV3PJl0+K/j+UhpRSlGgDaAlDCC/vcHvIyvq/lIaUUpRoA2gJQwipn47qsU4AQJSGlFKUaANoCUMIaGBkC8/JAECUhpRSlGgDaAlDCCIGoaJeAQbAlIaUUpRoA2gJQwjKtRnXBt/yv5SGlFKUaANoCUMIIEj++bYN9j+UhpRSlGgDaAlDCDMgibZZIg3AlIaUUpRoA2gJQwhFT9av0O/9P5SGlFKUaANoCUMI1xAQBeZS87+UhpRSlGgDaAlDCNYsBGFEvO8/lIaUUpRoA2gJQwjWLARhRLzvP5SGlFKUaANoCUMIhwo+TQkF7T+UhpRSlGgDaAlDCFCx84UPdyBAlIaUUpRoA2gJQwg1n9Sx2xETwJSGlFKUaANoCUMIiIRj26RYFECUhpRSlGgDaAlDCBwDPjeTIBHAlIaUUpRoA2gJQwj2uulGII4PQJSGlFKUaANoCUMI42dkdD825T+UhpRSlGgDaAlDCJAxiLj8i+8/lIaUUpRoA2gJQwiQMYi4/IvvP5SGlFKUaANoCUMIkDGIuPyL7z+UhpRSlGgDaAlDCCuI1VPaBxbAlIaUUpRoA2gJQwgOwi/KtEUPQJSGlFKUaANoCUMIDsIvyrRFD0CUhpRSlGgDaAlDCGE9B3lV8xXAlIaUUpRoA2gJQwgtFim0Nif1v5SGlFKUaANoCUMIrNEzp8LF5z+UhpRSlGgDaAlDCKzRM6fCxec/lIaUUpRoA2gJQwis0TOnwsXnP5SGlFKUaANoCUMILRYptDYn9b+UhpRSlGgDaAlDCKzRM6fCxec/lIaUUpRoA2gJQwis0TOnwsXnP5SGlFKUaANoCUMIrNEzp8LF5z+UhpRSlGgDaAlDCDD72MPr+O2/lIaUUpRoA2gJQwhLgSX+HCjiP5SGlFKUaANoCUMIS4El/hwo4j+UhpRSlGgDaAlDCEkcdSj2puy/lIaUUpRoA2gJQwgGoP82S+7gP5SGlFKUaANoCUMIBqD/Nkvu4D+UhpRSlGgDaAlDCNlGGTxx9Oq/lIaUUpRoA2gJQwipnT0LbwbhP5SGlFKUaANoCUMIqZ09C28G4T+UhpRSlGgDaAlDCJ+kzGqQ386/lIaUUpRoA2gJQwhOtdHACBXgP5SGlFKUaANoCUMI2UYZPHH06r+UhpRSlGgDaAlDCKmdPQtvBuE/lIaUUpRoA2gJQwipnT0LbwbhP5SGlFKUaANoCUMISRx1KPam7L+UhpRSlGgDaAlDCAag/zZL7uA/lIaUUpRoA2gJQwgGoP82S+7gP5SGlFKUZS4=

$$$$
29
     RDKit          3D

 50 52  0  0  1  0  0  0  0  0999 V2000
   26.9470   15.3250    9.1860 C   0  0  0  0  0  0  0  0  0  0  0  0
   27.6320   14.0950    9.0140 C   0  0  0  0  0  0  0  0  0  0  0  0
   28.7000   14.0480    9.1690 H   0  0  0  0  0  0  0  0  0  0  0  0
   26.9220   12.9310    8.6410 C   0  0  0  0  0  0  0  0  0  0  0  0
   27.4460   11.9960    8.5080 H   0  0  0  0  0  0  0  0  0  0  0  0
   25.5210   12.9940    8.4420 C   0  0  0  0  0  0  0  0  0  0  0  0
   24.8260   14.2190    8.6190 C   0  0  0  0  0  0  0  0  0  0  0  0
   25.5440   15.3800    8.9820 C   0  0  0  0  0  0  0  0  0  0  0  0
   25.0210   16.3170    9.1050 H   0  0  0  0  0  0  0  0  0  0  0  0
   24.8500   11.8510    8.0940 O   0  0  0  0  0  0  0  0  0  0  0  0
   23.4360   11.7100    8.2520 C   0  0  0  0  0  0  0  0  0  0  0  0
   22.7180   13.0050    7.7980 C   0  0  0  0  0  0  0  0  0  0  0  0
   21.6740   12.9400    8.1030 H   0  0  0  0  0  0  0  0  0  0  0  0
   22.7760   13.0630    6.7110 H   0  0  0  0  0  0  0  0  0  0  0  0
   23.3110   14.3040    8.3820 C   0  0  2  0  0  0  0  0  0  0  0  0
   23.0360   15.4900    7.4390 C   0  0  0  0  0  0  0  0  0  0  0  0
   22.3290   16.4140    8.1240 N   0  0  0  0  0  0  0  0  0  0  0  0
   22.0880   15.9170    9.3720 C   0  0  0  0  0  0  0  0  0  0  0  0
   22.5740   14.7390    9.5680 N   0  0  0  0  0  0  0  0  0  0  0  0
   22.4630   14.1980   10.4140 H   0  0  0  0  0  0  0  0  0  0  0  0
   21.9330   17.7200    7.5940 C   0  0  0  0  0  0  0  0  0  0  0  0
   22.2760   17.8130    6.5640 H   0  0  0  0  0  0  0  0  0  0  0  0
   22.3810   18.5090    8.1990 H   0  0  0  0  0  0  0  0  0  0  0  0
   20.8470   17.8110    7.6250 H   0  0  0  0  0  0  0  0  0  0  0  0
   21.3210   16.6530   10.2630 N   0  0  0  0  0  0  0  0  0  0  0  0
   21.0940   16.2700   11.1700 H   0  0  0  0  0  0  0  0  0  0  0  0
   20.9900   17.5720   10.0050 H   0  0  0  0  0  0  0  0  0  0  0  0
   23.5150   15.6060    6.3060 O   0  0  0  0  0  0  0  0  0  0  0  0
   23.0150   10.5220    7.3590 C   0  0  0  0  0  0  0  0  0  0  0  0
   23.2670   10.7410    6.3210 H   0  0  0  0  0  0  0  0  0  0  0  0
   21.9400   10.3650    7.4470 H   0  0  0  0  0  0  0  0  0  0  0  0
   23.5410    9.6230    7.6790 H   0  0  0  0  0  0  0  0  0  0  0  0
   23.0750   11.3910    9.7230 C   0  0  0  0  0  0  0  0  0  0  0  0
   23.3700   12.2260   10.3590 H   0  0  0  0  0  0  0  0  0  0  0  0
   23.6010   10.4900   10.0390 H   0  0  0  0  0  0  0  0  0  0  0  0
   22.0000   11.2320    9.8070 H   0  0  0  0  0  0  0  0  0  0  0  0
   27.6130   16.4610    9.5250 O   0  0  0  0  0  0  0  0  0  0  0  0
   28.3790   16.9310    8.4150 C   0  0  0  0  0  0  0  0  0  0  0  0
   29.0720   18.1230    8.7850 C   0  0  0  0  0  0  0  0  0  0  0  0
   28.1270   19.1230    9.1680 C   0  0  0  0  0  0  0  0  0  0  0  0
   27.4620   19.3350    8.3310 H   0  0  0  0  0  0  0  0  0  0  0  0
   28.6560   20.0330    9.4510 H   0  0  0  0  0  0  0  0  0  0  0  0
   27.5420   18.7650   10.0150 H   0  0  0  0  0  0  0  0  0  0  0  0
   29.8380   18.5930    7.6750 C   0  0  0  0  0  0  0  0  0  0  0  0
   29.1730   18.8040    6.8380 H   0  0  0  0  0  0  0  0  0  0  0  0
   30.5590   17.8290    7.3830 H   0  0  0  0  0  0  0  0  0  0  0  0
   30.3670   19.5030    7.9580 H   0  0  0  0  0  0  0  0  0  0  0  0
   29.7370   17.9120    9.6220 H   0  0  0  0  0  0  0  0  0  0  0  0
   27.7140   17.1420    7.5780 H   0  0  0  0  0  0  0  0  0  0  0  0
   29.1000   16.1670    8.1220 H   0  0  0  0  0  0  0  0  0  0  0  0
  1  2  2  0
  1  8  1  0
  1 37  1  0
  2  3  1  0
  2  4  1  0
  4  5  1  0
  4  6  2  0
  6  7  1  0
  6 10  1  0
  7  8  2  0
  7 15  1  0
  8  9  1  0
 10 11  1  0
 11 12  1  0
 11 29  1  0
 11 33  1  0
 12 13  1  0
 12 14  1  0
 15 12  1  6
 15 16  1  0
 15 19  1  0
 16 17  1  0
 16 28  2  0
 17 18  1  0
 17 21  1  0
 18 19  2  0
 18 25  1  0
 19 20  1  0
 21 22  1  0
 21 23  1  0
 21 24  1  0
 25 26  1  0
 25 27  1  0
 29 30  1  0
 29 31  1  0
 29 32  1  0
 33 34  1  0
 33 35  1  0
 33 36  1  0
 37 38  1  0
 38 39  1  0
 38 49  1  0
 38 50  1  0
 39 40  1  0
 39 44  1  0
 39 48  1  0
 40 41  1  0
 40 42  1  0
 40 43  1  0
 44 45  1  0
 44 46  1  0
 44 47  1  0
M  CHG  1  19   1
M  END
>  <r_exp_dg>  (20) 
-8.73567

>  <experimental dG reference units>  (20) 
kcal/mol

>  <experimental dG reference field>  (20) 
r_exp_dg

>  <kJ/mol experimental dG>  (20) 
-36.550043280000004

>  <kcal/mol experimental dG>  (20) 
-8.73567

>  <AmberAM1BCCCache>  (20) 
gASVEQQAAAAAAABdlCiMFm51bXB5Ll9jb3JlLm11bHRpYXJyYXmUjAZzY2FsYXKUk5SMBW51bXB5lIwFZHR5cGWUk5SMAmY4lImIh5RSlChLA4wBPJROTk5K/////0r/////SwB0lGJDCGxXsh+TZvc/lIaUUpRoA2gJQwi+fYCkeEb5v5SGlFKUaANoCUMIbvxNJDkd/z+UhpRSlGgDaAlDCCUC8Tai/vO/lIaUUpRoA2gJQwhM6xY0u08AQJSGlFKUaANoCUMIUAJq+JzL+j+UhpRSlGgDaAlDCFcU5dcDawLAlIaUUpRoA2gJQwhFQMwyHLr7v5SGlFKUaANoCUMIBI9KvYtE+T+UhpRSlGgDaAlDCJDUAG1QIQ3AlIaUUpRoA2gJQwhG62qam8H9P5SGlFKUaANoCUMITH6DyYsg87+UhpRSlGgDaAlDCGFbJYdpwO8/lIaUUpRoA2gJQwhhWyWHacDvP5SGlFKUaANoCUMIW2iH3mEm6z+UhpRSlGgDaAlDCAnDdMJjgyBAlIaUUpRoA2gJQwi/e9I4M/kSwJSGlFKUaANoCUMIWaongClZFECUhpRSlGgDaAlDCAXi/enG7xDAlIaUUpRoA2gJQwj4CDS8BXcPQJSGlFKUaANoCUMIbpaFmmQ65T+UhpRSlGgDaAlDCLqo72ZJsO8/lIaUUpRoA2gJQwi6qO9mSbDvP5SGlFKUaANoCUMIuqjvZkmw7z+UhpRSlGgDaAlDCOVltPAf4xXAlIaUUpRoA2gJQwixDbgTvkYPQJSGlFKUaANoCUMIsQ24E75GD0CUhpRSlGgDaAlDCI8XQ9TQ8hXAlIaUUpRoA2gJQwhDgdpMAA31v5SGlFKUaANoCUMIEXQcGkCU5z+UhpRSlGgDaAlDCBF0HBpAlOc/lIaUUpRoA2gJQwgRdBwaQJTnP5SGlFKUaANoCUMIQ4HaTAAN9b+UhpRSlGgDaAlDCBF0HBpAlOc/lIaUUpRoA2gJQwgRdBwaQJTnP5SGlFKUaANoCUMIEXQcGkCU5z+UhpRSlGgDaAlDCEel2AEdBA/AlIaUUpRoA2gJQwgUHu2tVqX3P5SGlFKUaANoCUMI3FfOtTCe8r+UhpRSlGgDaAlDCL7Y5J/Sj/G/lIaUUpRoA2gJQwge326PdUngP5SGlFKUaANoCUMIHt9uj3VJ4D+UhpRSlGgDaAlDCB7fbo91SeA/lIaUUpRoA2gJQwi+2OSf0o/xv5SGlFKUaANoCUMIHt9uj3VJ4D+UhpRSlGgDaAlDCB7fbo91SeA/lIaUUpRoA2gJQwge326PdUngP5SGlFKUaANoCUMI0nuaYVY/5D+UhpRSlGgDaAlDCCb8rSblVuk/lIaUUpRoA2gJQwgm/K0m5VbpP5SGlFKUZS4=

$$$$
30
     RDKit          3D

 52 55  0  0  1  0  0  0  0  0999 V2000
   26.9470   15.3250    9.1860 C   0  0  0  0  0  0  0  0  0  0  0  0
   27.6320   14.0950    9.0140 C   0  0  0  0  0  0  0  0  0  0  0  0
   28.7000   14.0480    9.1690 H   0  0  0  0  0  0  0  0  0  0  0  0
   26.9220   12.9310    8.6410 C   0  0  0  0  0  0  0  0  0  0  0  0
   27.4460   11.9960    8.5080 H   0  0  0  0  0  0  0  0  0  0  0  0
   25.5210   12.9940    8.4420 C   0  0  0  0  0  0  0  0  0  0  0  0
   24.8260   14.2190    8.6190 C   0  0  0  0  0  0  0  0  0  0  0  0
   25.5440   15.3800    8.9820 C   0  0  0  0  0  0  0  0  0  0  0  0
   25.0210   16.3170    9.1050 H   0  0  0  0  0  0  0  0  0  0  0  0
   24.8500   11.8510    8.0940 O   0  0  0  0  0  0  0  0  0  0  0  0
   23.4360   11.7100    8.2520 C   0  0  0  0  0  0  0  0  0  0  0  0
   22.7180   13.0050    7.7980 C   0  0  0  0  0  0  0  0  0  0  0  0
   21.6740   12.9400    8.1030 H   0  0  0  0  0  0  0  0  0  0  0  0
   22.7760   13.0630    6.7110 H   0  0  0  0  0  0  0  0  0  0  0  0
   23.3110   14.3040    8.3820 C   0  0  2  0  0  0  0  0  0  0  0  0
   23.0360   15.4900    7.4390 C   0  0  0  0  0  0  0  0  0  0  0  0
   22.3290   16.4140    8.1240 N   0  0  0  0  0  0  0  0  0  0  0  0
   22.0880   15.9170    9.3720 C   0  0  0  0  0  0  0  0  0  0  0  0
   22.5740   14.7390    9.5680 N   0  0  0  0  0  0  0  0  0  0  0  0
   22.4630   14.1980   10.4140 H   0  0  0  0  0  0  0  0  0  0  0  0
   21.9330   17.7200    7.5940 C   0  0  0  0  0  0  0  0  0  0  0  0
   22.2760   17.8130    6.5640 H   0  0  0  0  0  0  0  0  0  0  0  0
   22.3810   18.5090    8.1990 H   0  0  0  0  0  0  0  0  0  0  0  0
   20.8470   17.8110    7.6250 H   0  0  0  0  0  0  0  0  0  0  0  0
   21.3210   16.6530   10.2630 N   0  0  0  0  0  0  0  0  0  0  0  0
   21.0940   16.2700   11.1700 H   0  0  0  0  0  0  0  0  0  0  0  0
   20.9900   17.5720   10.0050 H   0  0  0  0  0  0  0  0  0  0  0  0
   23.5150   15.6060    6.3060 O   0  0  0  0  0  0  0  0  0  0  0  0
   23.0150   10.5220    7.3590 C   0  0  0  0  0  0  0  0  0  0  0  0
   23.2670   10.7410    6.3210 H   0  0  0  0  0  0  0  0  0  0  0  0
   21.9400   10.3650    7.4470 H   0  0  0  0  0  0  0  0  0  0  0  0
   23.5410    9.6230    7.6790 H   0  0  0  0  0  0  0  0  0  0  0  0
   23.0750   11.3910    9.7230 C   0  0  0  0  0  0  0  0  0  0  0  0
   23.3700   12.2260   10.3590 H   0  0  0  0  0  0  0  0  0  0  0  0
   23.6010   10.4900   10.0390 H   0  0  0  0  0  0  0  0  0  0  0  0
   22.0000   11.2320    9.8070 H   0  0  0  0  0  0  0  0  0  0  0  0
   28.9310   18.1330   11.5680 C   0  0  0  0  0  0  0  0  0  0  0  0
   29.4680   19.0480   11.8410 H   0  0  0  0  0  0  0  0  0  0  0  0
   28.8240   17.5400   12.4850 H   0  0  0  0  0  0  0  0  0  0  0  0
   29.7470   17.3440   10.5470 C   0  0  0  0  0  0  0  0  0  0  0  0
   30.7030   17.0450   10.9900 H   0  0  0  0  0  0  0  0  0  0  0  0
   29.9780   17.9880    9.6900 H   0  0  0  0  0  0  0  0  0  0  0  0
   28.9960   16.1060   10.0620 C   0  0  0  0  0  0  0  0  0  0  0  0
   28.8920   15.3950   10.8920 H   0  0  0  0  0  0  0  0  0  0  0  0
   29.5780   15.6040    9.2810 H   0  0  0  0  0  0  0  0  0  0  0  0
   27.6130   16.4610    9.5250 N   0  0  0  0  0  0  0  0  0  0  0  0
   26.7980   17.2500   10.5450 C   0  0  0  0  0  0  0  0  0  0  0  0
   26.5660   16.6060   11.4030 H   0  0  0  0  0  0  0  0  0  0  0  0
   25.8410   17.5490   10.1020 H   0  0  0  0  0  0  0  0  0  0  0  0
   27.5480   18.4880   11.0300 C   0  0  0  0  0  0  0  0  0  0  0  0
   26.9660   18.9900   11.8120 H   0  0  0  0  0  0  0  0  0  0  0  0
   27.6520   19.1990   10.2010 H   0  0  0  0  0  0  0  0  0  0  0  0
  1  2  2  0
  1  8  1  0
  1 46  1  0
  2  3  1  0
  2  4  1  0
  4  5  1  0
  4  6  2  0
  6  7  1  0
  6 10  1  0
  7  8  2  0
  7 15  1  0
  8  9  1  0
 10 11  1  0
 11 12  1  0
 11 29  1  0
 11 33  1  0
 12 13  1  0
 12 14  1  0
 15 12  1  6
 15 16  1  0
 15 19  1  0
 16 17  1  0
 16 28  2  0
 17 18  1  0
 17 21  1  0
 18 19  2  0
 18 25  1  0
 19 20  1  0
 21 22  1  0
 21 23  1  0
 21 24  1  0
 25 26  1  0
 25 27  1  0
 29 30  1  0
 29 31  1  0
 29 32  1  0
 33 34  1  0
 33 35  1  0
 33 36  1  0
 37 38  1  0
 37 39  1  0
 37 40  1  0
 37 50  1  0
 40 41  1  0
 40 42  1  0
 40 43  1  0
 43 44  1  0
 43 45  1  0
 43 46  1  0
 46 47  1  0
 47 48  1  0
 47 49  1  0
 47 50  1  0
 50 51  1  0
 50 52  1  0
M  CHG  1  19   1
M  END
>  <r_exp_dg>  (21) 
-6.94738

>  <experimental dG reference units>  (21) 
kcal/mol

>  <experimental dG reference field>  (21) 
r_exp_dg

>  <kJ/mol experimental dG>  (21) 
-29.067837920000002

>  <kcal/mol experimental dG>  (21) 
-6.94738

>  <AmberAM1BCCCache>  (21) 
gASVNwQAAAAAAABdlCiMFm51bXB5Ll9jb3JlLm11bHRpYXJyYXmUjAZzY2FsYXKUk5SMBW51bXB5lIwFZHR5cGWUk5SMAmY4lImIh5RSlChLA4wBPJROTk5K/////0r/////SwB0lGJDCOlMEgtrmP0/lIaUUpRoA2gJQwgVN8bablH2v5SGlFKUaANoCUMIz6Sw/nks/j+UhpRSlGgDaAlDCEh5/qODrfO/lIaUUpRoA2gJQwjTezgI587/P5SGlFKUaANoCUMIKUWl/bix8z+UhpRSlGgDaAlDCJfyMxBn4ADAlIaUUpRoA2gJQwhHiwlvmiv9v5SGlFKUaANoCUMIySpNrovU+D+UhpRSlGgDaAlDCKJh9caB0w7AlIaUUpRoA2gJQwiWfWXcKrL9P5SGlFKUaANoCUMIje20pOQf87+UhpRSlGgDaAlDCJ0ylw2PWfA/lIaUUpRoA2gJQwidMpcNj1nwP5SGlFKUaANoCUMI9d5sT6bC5z+UhpRSlGgDaAlDCF+SAXSinyBAlIaUUpRoA2gJQwg01dxDLRETwJSGlFKUaANoCUMIYUsDD4N5FECUhpRSlGgDaAlDCNY9yiCd7xDAlIaUUpRoA2gJQwian5D/NRgQQJSGlFKUaANoCUMIda4aNUKc5T+UhpRSlGgDaAlDCDQXh4qIZu8/lIaUUpRoA2gJQwg0F4eKiGbvP5SGlFKUaANoCUMINBeHiohm7z+UhpRSlGgDaAlDCPy8/M89ExbAlIaUUpRoA2gJQwijV0vD+TYPQJSGlFKUaANoCUMIo1dLw/k2D0CUhpRSlGgDaAlDCPtyxAOt9hXAlIaUUpRoA2gJQwhvAxyGOkv0v5SGlFKUaANoCUMIcmzjIokz5j+UhpRSlGgDaAlDCHJs4yKJM+Y/lIaUUpRoA2gJQwhybOMiiTPmP5SGlFKUaANoCUMIbwMchjpL9L+UhpRSlGgDaAlDCHJs4yKJM+Y/lIaUUpRoA2gJQwhybOMiiTPmP5SGlFKUaANoCUMIcmzjIokz5j+UhpRSlGgDaAlDCGWbYjBnlO6/lIaUUpRoA2gJQwjztMtgPk/jP5SGlFKUaANoCUMI87TLYD5P4z+UhpRSlGgDaAlDCN8nEdxwzPC/lIaUUpRoA2gJQwg0fJtGmpLlP5SGlFKUaANoCUMINHybRpqS5T+UhpRSlGgDaAlDCANuI5fdEQJAlIaUUpRoA2gJQwhNIrQWkkPfP5SGlFKUaANoCUMITSK0FpJD3z+UhpRSlGgDaAlDCLoibvUARR7AlIaUUpRoA2gJQwgDbiOX3RECQJSGlFKUaANoCUMITSK0FpJD3z+UhpRSlGgDaAlDCE0itBaSQ98/lIaUUpRoA2gJQwjfJxHccMzwv5SGlFKUaANoCUMINHybRpqS5T+UhpRSlGgDaAlDCDR8m0aakuU/lIaUUpRlLg==

$$$$
31
     RDKit          3D

 46 49  0  0  1  0  0  0  0  0999 V2000
   26.9470   15.3250    9.1860 C   0  0  0  0  0  0  0  0  0  0  0  0
   27.6320   14.0950    9.0140 C   0  0  0  0  0  0  0  0  0  0  0  0
   28.7000   14.0480    9.1690 H   0  0  0  0  0  0  0  0  0  0  0  0
   26.9220   12.9310    8.6410 C   0  0  0  0  0  0  0  0  0  0  0  0
   27.4460   11.9960    8.5080 H   0  0  0  0  0  0  0  0  0  0  0  0
   25.5210   12.9940    8.4420 C   0  0  0  0  0  0  0  0  0  0  0  0
   24.8260   14.2190    8.6190 C   0  0  0  0  0  0  0  0  0  0  0  0
   25.5440   15.3800    8.9820 C   0  0  0  0  0  0  0  0  0  0  0  0
   25.0210   16.3170    9.1050 H   0  0  0  0  0  0  0  0  0  0  0  0
   24.8500   11.8510    8.0940 O   0  0  0  0  0  0  0  0  0  0  0  0
   23.4360   11.7100    8.2520 C   0  0  0  0  0  0  0  0  0  0  0  0
   22.7180   13.0050    7.7980 C   0  0  0  0  0  0  0  0  0  0  0  0
   21.6740   12.9400    8.1030 H   0  0  0  0  0  0  0  0  0  0  0  0
   22.7760   13.0630    6.7110 H   0  0  0  0  0  0  0  0  0  0  0  0
   23.3110   14.3040    8.3820 C   0  0  2  0  0  0  0  0  0  0  0  0
   23.0360   15.4900    7.4390 C   0  0  0  0  0  0  0  0  0  0  0  0
   22.3290   16.4140    8.1240 N   0  0  0  0  0  0  0  0  0  0  0  0
   22.0880   15.9170    9.3720 C   0  0  0  0  0  0  0  0  0  0  0  0
   22.5740   14.7390    9.5680 N   0  0  0  0  0  0  0  0  0  0  0  0
   22.4630   14.1980   10.4140 H   0  0  0  0  0  0  0  0  0  0  0  0
   27.6390   16.5060    9.5380 C   0  0  0  0  0  0  0  0  0  0  0  0
   21.9330   17.7200    7.5940 C   0  0  0  0  0  0  0  0  0  0  0  0
   22.2760   17.8130    6.5640 H   0  0  0  0  0  0  0  0  0  0  0  0
   22.3810   18.5090    8.1990 H   0  0  0  0  0  0  0  0  0  0  0  0
   20.8470   17.8110    7.6250 H   0  0  0  0  0  0  0  0  0  0  0  0
   21.3210   16.6530   10.2630 N   0  0  0  0  0  0  0  0  0  0  0  0
   21.0940   16.2700   11.1700 H   0  0  0  0  0  0  0  0  0  0  0  0
   20.9900   17.5720   10.0050 H   0  0  0  0  0  0  0  0  0  0  0  0
   27.0450   17.4570   10.4030 C   0  0  0  0  0  0  0  0  0  0  0  0
   26.0630   17.2760   10.8140 H   0  0  0  0  0  0  0  0  0  0  0  0
   27.7420   18.6460   10.7270 C   0  0  0  0  0  0  0  0  0  0  0  0
   27.2890   19.3670   11.3910 H   0  0  0  0  0  0  0  0  0  0  0  0
   29.0290   18.9000   10.1880 C   0  0  0  0  0  0  0  0  0  0  0  0
   29.5540   19.8090   10.4410 H   0  0  0  0  0  0  0  0  0  0  0  0
   29.6220   17.9540    9.3150 N   0  0  0  0  0  0  0  0  0  0  0  0
   28.9240   16.7660    8.9880 C   0  0  0  0  0  0  0  0  0  0  0  0
   29.3720   16.0510    8.3140 H   0  0  0  0  0  0  0  0  0  0  0  0
   23.5150   15.6060    6.3060 O   0  0  0  0  0  0  0  0  0  0  0  0
   23.0150   10.5220    7.3590 C   0  0  0  0  0  0  0  0  0  0  0  0
   23.2670   10.7410    6.3210 H   0  0  0  0  0  0  0  0  0  0  0  0
   21.9400   10.3650    7.4470 H   0  0  0  0  0  0  0  0  0  0  0  0
   23.5410    9.6230    7.6790 H   0  0  0  0  0  0  0  0  0  0  0  0
   23.0750   11.3910    9.7230 C   0  0  0  0  0  0  0  0  0  0  0  0
   23.3700   12.2260   10.3590 H   0  0  0  0  0  0  0  0  0  0  0  0
   23.6010   10.4900   10.0390 H   0  0  0  0  0  0  0  0  0  0  0  0
   22.0000   11.2320    9.8070 H   0  0  0  0  0  0  0  0  0  0  0  0
  1  2  2  0
  1  8  1  0
  1 21  1  0
  2  3  1  0
  2  4  1  0
  4  5  1  0
  4  6  2  0
  6  7  1  0
  6 10  1  0
  7  8  2  0
  7 15  1  0
  8  9  1  0
 10 11  1  0
 11 12  1  0
 11 39  1  0
 11 43  1  0
 12 13  1  0
 12 14  1  0
 15 12  1  6
 15 16  1  0
 15 19  1  0
 16 17  1  0
 16 38  2  0
 17 18  1  0
 17 22  1  0
 18 19  2  0
 18 26  1  0
 19 20  1  0
 21 29  2  0
 21 36  1  0
 22 23  1  0
 22 24  1  0
 22 25  1  0
 26 27  1  0
 26 28  1  0
 29 30  1  0
 29 31  1  0
 31 32  1  0
 31 33  2  0
 33 34  1  0
 33 35  1  0
 35 36  2  0
 36 37  1  0
 39 40  1  0
 39 41  1  0
 39 42  1  0
 43 44  1  0
 43 45  1  0
 43 46  1  0
M  CHG  1  19   1
M  END
>  <r_exp_dg>  (22) 
-9.53354

>  <experimental dG reference units>  (22) 
kcal/mol

>  <experimental dG reference field>  (22) 
r_exp_dg

>  <kJ/mol experimental dG>  (22) 
-39.88833136

>  <kcal/mol experimental dG>  (22) 
-9.53354

>  <AmberAM1BCCCache>  (22) 
gASVxQMAAAAAAABdlCiMFm51bXB5Ll9jb3JlLm11bHRpYXJyYXmUjAZzY2FsYXKUk5SMBW51bXB5lIwFZHR5cGWUk5SMAmY4lImIh5RSlChLA4wBPJROTk5K/////0r/////SwB0lGJDCHisdOGc596/lIaUUpRoA2gJQwgfAXJJ2Njiv5SGlFKUaANoCUMIigvrsnrv/j+UhpRSlGgDaAlDCJ46N1NLh/u/lIaUUpRoA2gJQwjDax94R4EAQJSGlFKUaANoCUMI9ShSV5ogAUCUhpRSlGgDaAlDCJUwCGZYLwbAlIaUUpRoA2gJQwgLyWi5UUvvv5SGlFKUaANoCUMI88MHCJCU9z+UhpRSlGgDaAlDCOxfwgMRdwzAlIaUUpRoA2gJQwgc/4uAlWP9P5SGlFKUaANoCUMIFk5K1j+g9L+UhpRSlGgDaAlDCFR/e+AZJvI/lIaUUpRoA2gJQwhUf3vgGSbyP5SGlFKUaANoCUMIfZnRWcYJ6j+UhpRSlGgDaAlDCFbkV+m0gyBAlIaUUpRoA2gJQwicNWmpxhwTwJSGlFKUaANoCUMIleorou9xFECUhpRSlGgDaAlDCCeXEAOiQxHAlIaUUpRoA2gJQwhsiTwAkqgPQJSGlFKUaANoCUMIQLD0oMkXAcCUhpRSlGgDaAlDCDKrtwh3P+U/lIaUUpRoA2gJQwjJIo0VnNXvP5SGlFKUaANoCUMIySKNFZzV7z+UhpRSlGgDaAlDCMkijRWc1e8/lIaUUpRoA2gJQwjBH0thswYWwJSGlFKUaANoCUMI4ZJErwJID0CUhpRSlGgDaAlDCOGSRK8CSA9AlIaUUpRoA2gJQwiWv2AK4avvv5SGlFKUaANoCUMI8I9bRaSn+T+UhpRSlGgDaAlDCAggujNT2AbAlIaUUpRoA2gJQwjSOhMergz9P5SGlFKUaANoCUMIR2phdqNvE0CUhpRSlGgDaAlDCNThk/QmxNw/lIaUUpRoA2gJQwjcetPBF6UewJSGlFKUaANoCUMIR2phdqNvE0CUhpRSlGgDaAlDCPeeNKH0ONU/lIaUUpRoA2gJQwiD2B/I+M0VwJSGlFKUaANoCUMI+n0HmQvC9L+UhpRSlGgDaAlDCNhXnLXEh+Y/lIaUUpRoA2gJQwjYV5y1xIfmP5SGlFKUaANoCUMI2FectcSH5j+UhpRSlGgDaAlDCPp9B5kLwvS/lIaUUpRoA2gJQwjYV5y1xIfmP5SGlFKUaANoCUMI2FectcSH5j+UhpRSlGgDaAlDCNhXnLXEh+Y/lIaUUpRlLg==

$$$$
32
     RDKit          3D

 46 49  0  0  1  0  0  0  0  0999 V2000
   26.9470   15.3250    9.1860 C   0  0  0  0  0  0  0  0  0  0  0  0
   27.6320   14.0950    9.0140 C   0  0  0  0  0  0  0  0  0  0  0  0
   28.7000   14.0480    9.1690 H   0  0  0  0  0  0  0  0  0  0  0  0
   26.9220   12.9310    8.6410 C   0  0  0  0  0  0  0  0  0  0  0  0
   27.4460   11.9960    8.5080 H   0  0  0  0  0  0  0  0  0  0  0  0
   25.5210   12.9940    8.4420 C   0  0  0  0  0  0  0  0  0  0  0  0
   24.8260   14.2190    8.6190 C   0  0  0  0  0  0  0  0  0  0  0  0
   25.5440   15.3800    8.9820 C   0  0  0  0  0  0  0  0  0  0  0  0
   25.0210   16.3170    9.1050 H   0  0  0  0  0  0  0  0  0  0  0  0
   24.8500   11.8510    8.0940 O   0  0  0  0  0  0  0  0  0  0  0  0
   23.4360   11.7100    8.2520 C   0  0  0  0  0  0  0  0  0  0  0  0
   22.7180   13.0050    7.7980 C   0  0  0  0  0  0  0  0  0  0  0  0
   21.6740   12.9400    8.1030 H   0  0  0  0  0  0  0  0  0  0  0  0
   22.7760   13.0630    6.7110 H   0  0  0  0  0  0  0  0  0  0  0  0
   23.3110   14.3040    8.3820 C   0  0  2  0  0  0  0  0  0  0  0  0
   23.0360   15.4900    7.4390 C   0  0  0  0  0  0  0  0  0  0  0  0
   22.3290   16.4140    8.1240 N   0  0  0  0  0  0  0  0  0  0  0  0
   22.0880   15.9170    9.3720 C   0  0  0  0  0  0  0  0  0  0  0  0
   22.5740   14.7390    9.5680 N   0  0  0  0  0  0  0  0  0  0  0  0
   22.4630   14.1980   10.4140 H   0  0  0  0  0  0  0  0  0  0  0  0
   27.6390   16.5060    9.5380 C   0  0  0  0  0  0  0  0  0  0  0  0
   21.9330   17.7200    7.5940 C   0  0  0  0  0  0  0  0  0  0  0  0
   22.2760   17.8130    6.5640 H   0  0  0  0  0  0  0  0  0  0  0  0
   22.3810   18.5090    8.1990 H   0  0  0  0  0  0  0  0  0  0  0  0
   20.8470   17.8110    7.6250 H   0  0  0  0  0  0  0  0  0  0  0  0
   21.3210   16.6530   10.2630 N   0  0  0  0  0  0  0  0  0  0  0  0
   21.0940   16.2700   11.1700 H   0  0  0  0  0  0  0  0  0  0  0  0
   20.9900   17.5720   10.0050 H   0  0  0  0  0  0  0  0  0  0  0  0
   27.0450   17.4570   10.4030 C   0  0  0  0  0  0  0  0  0  0  0  0
   26.0630   17.2760   10.8140 H   0  0  0  0  0  0  0  0  0  0  0  0
   27.7420   18.6460   10.7270 C   0  0  0  0  0  0  0  0  0  0  0  0
   27.2890   19.3670   11.3910 H   0  0  0  0  0  0  0  0  0  0  0  0
   29.0290   18.9000   10.1880 C   0  0  0  0  0  0  0  0  0  0  0  0
   29.5540   19.8090   10.4410 H   0  0  0  0  0  0  0  0  0  0  0  0
   29.6220   17.9540    9.3150 C   0  0  0  0  0  0  0  0  0  0  0  0
   30.6020   18.1380    8.9010 H   0  0  0  0  0  0  0  0  0  0  0  0
   28.9240   16.7660    8.9880 N   0  0  0  0  0  0  0  0  0  0  0  0
   23.5150   15.6060    6.3060 O   0  0  0  0  0  0  0  0  0  0  0  0
   23.0150   10.5220    7.3590 C   0  0  0  0  0  0  0  0  0  0  0  0
   23.2670   10.7410    6.3210 H   0  0  0  0  0  0  0  0  0  0  0  0
   21.9400   10.3650    7.4470 H   0  0  0  0  0  0  0  0  0  0  0  0
   23.5410    9.6230    7.6790 H   0  0  0  0  0  0  0  0  0  0  0  0
   23.0750   11.3910    9.7230 C   0  0  0  0  0  0  0  0  0  0  0  0
   23.3700   12.2260   10.3590 H   0  0  0  0  0  0  0  0  0  0  0  0
   23.6010   10.4900   10.0390 H   0  0  0  0  0  0  0  0  0  0  0  0
   22.0000   11.2320    9.8070 H   0  0  0  0  0  0  0  0  0  0  0  0
  1  2  2  0
  1  8  1  0
  1 21  1  0
  2  3  1  0
  2  4  1  0
  4  5  1  0
  4  6  2  0
  6  7  1  0
  6 10  1  0
  7  8  2  0
  7 15  1  0
  8  9  1  0
 10 11  1  0
 11 12  1  0
 11 39  1  0
 11 43  1  0
 12 13  1  0
 12 14  1  0
 15 12  1  6
 15 16  1  0
 15 19  1  0
 16 17  1  0
 16 38  2  0
 17 18  1  0
 17 22  1  0
 18 19  2  0
 18 26  1  0
 19 20  1  0
 21 29  2  0
 21 37  1  0
 22 23  1  0
 22 24  1  0
 22 25  1  0
 26 27  1  0
 26 28  1  0
 29 30  1  0
 29 31  1  0
 31 32  1  0
 31 33  2  0
 33 34  1  0
 33 35  1  0
 35 36  1  0
 35 37  2  0
 39 40  1  0
 39 41  1  0
 39 42  1  0
 43 44  1  0
 43 45  1  0
 43 46  1  0
M  CHG  1  19   1
M  END
>  <r_exp_dg>  (23) 
-7.72152

>  <experimental dG reference units>  (23) 
kcal/mol

>  <experimental dG reference field>  (23) 
r_exp_dg

>  <kJ/mol experimental dG>  (23) 
-32.30683968

>  <kcal/mol experimental dG>  (23) 
-7.721520000000001

>  <AmberAM1BCCCache>  (23) 
gASVxQMAAAAAAABdlCiMFm51bXB5Ll9jb3JlLm11bHRpYXJyYXmUjAZzY2FsYXKUk5SMBW51bXB5lIwFZHR5cGWUk5SMAmY4lImIh5RSlChLA4wBPJROTk5K/////0r/////SwB0lGJDCE6t6R0NT/q/lIaUUpRoA2gJQwjpRxahcOnbv5SGlFKUaANoCUMIyUEzr32AAECUhpRSlGgDaAlDCGa0L6GhBvq/lIaUUpRoA2gJQwjhSHkyEjgAQJSGlFKUaANoCUMI7sY2pLs7+j+UhpRSlGgDaAlDCNeJHJpVTQTAlIaUUpRoA2gJQwhU9Ylvogbqv5SGlFKUaANoCUMInR9rpr7H+j+UhpRSlGgDaAlDCMg0ZqXk3A/AlIaUUpRoA2gJQwhvpi+XSZL9P5SGlFKUaANoCUMIrbm2HW2w87+UhpRSlGgDaAlDCEw+s6xnY/E/lIaUUpRoA2gJQwhMPrOsZ2PxP5SGlFKUaANoCUMIVypRUEPD5z+UhpRSlGgDaAlDCHrXWkummyBAlIaUUpRoA2gJQwg8SB1iTzUTwJSGlFKUaANoCUMIDNISfMCVFECUhpRSlGgDaAlDCA2y61StBxHAlIaUUpRoA2gJQwi4Iv0qqVgQQJSGlFKUaANoCUMInJ6ydyqYFECUhpRSlGgDaAlDCGPw9oZu/eU/lIaUUpRoA2gJQwhahOSg5XHvP5SGlFKUaANoCUMIWoTkoOVx7z+UhpRSlGgDaAlDCFqE5KDlce8/lIaUUpRoA2gJQwhhMv8ZPB8WwJSGlFKUaANoCUMIFmo5/CY7D0CUhpRSlGgDaAlDCBZqOfwmOw9AlIaUUpRoA2gJQwh2U66rjXgGwJSGlFKUaANoCUMI506TEfLk+D+UhpRSlGgDaAlDCNKg+LiimPC/lIaUUpRoA2gJQwj5B9fwJLn7P5SGlFKUaANoCUMI1W/GuN9WBcCUhpRSlGgDaAlDCPbTKi45zP0/lIaUUpRoA2gJQwgFWm/p9j4TQJSGlFKUaANoCUMI9KRCC7r82z+UhpRSlGgDaAlDCE2MpmSyyR7AlIaUUpRoA2gJQwiX5zA/twoWwJSGlFKUaANoCUMIG+BrMcgy9L+UhpRSlGgDaAlDCFJnpQl2ZOY/lIaUUpRoA2gJQwhSZ6UJdmTmP5SGlFKUaANoCUMIUmelCXZk5j+UhpRSlGgDaAlDCBvgazHIMvS/lIaUUpRoA2gJQwhSZ6UJdmTmP5SGlFKUaANoCUMIUmelCXZk5j+UhpRSlGgDaAlDCFJnpQl2ZOY/lIaUUpRlLg==

$$$$
33
     RDKit          3D

 46 49  0  0  1  0  0  0  0  0999 V2000
   26.9470   15.3250    9.1860 C   0  0  0  0  0  0  0  0  0  0  0  0
   27.6320   14.0950    9.0140 C   0  0  0  0  0  0  0  0  0  0  0  0
   28.7000   14.0480    9.1690 H   0  0  0  0  0  0  0  0  0  0  0  0
   26.9220   12.9310    8.6410 C   0  0  0  0  0  0  0  0  0  0  0  0
   27.4460   11.9960    8.5080 H   0  0  0  0  0  0  0  0  0  0  0  0
   25.5210   12.9940    8.4420 C   0  0  0  0  0  0  0  0  0  0  0  0
   24.8260   14.2190    8.6190 C   0  0  0  0  0  0  0  0  0  0  0  0
   25.5440   15.3800    8.9820 C   0  0  0  0  0  0  0  0  0  0  0  0
   25.0210   16.3170    9.1050 H   0  0  0  0  0  0  0  0  0  0  0  0
   24.8500   11.8510    8.0940 O   0  0  0  0  0  0  0  0  0  0  0  0
   23.4360   11.7100    8.2520 C   0  0  0  0  0  0  0  0  0  0  0  0
   22.7180   13.0050    7.7980 C   0  0  0  0  0  0  0  0  0  0  0  0
   21.6740   12.9400    8.1030 H   0  0  0  0  0  0  0  0  0  0  0  0
   22.7760   13.0630    6.7110 H   0  0  0  0  0  0  0  0  0  0  0  0
   23.3110   14.3040    8.3820 C   0  0  2  0  0  0  0  0  0  0  0  0
   23.0360   15.4900    7.4390 C   0  0  0  0  0  0  0  0  0  0  0  0
   22.3290   16.4140    8.1240 N   0  0  0  0  0  0  0  0  0  0  0  0
   22.0880   15.9170    9.3720 C   0  0  0  0  0  0  0  0  0  0  0  0
   22.5740   14.7390    9.5680 N   0  0  0  0  0  0  0  0  0  0  0  0
   22.4630   14.1980   10.4140 H   0  0  0  0  0  0  0  0  0  0  0  0
   27.6390   16.5060    9.5380 C   0  0  0  0  0  0  0  0  0  0  0  0
   21.9330   17.7200    7.5940 C   0  0  0  0  0  0  0  0  0  0  0  0
   22.2760   17.8130    6.5640 H   0  0  0  0  0  0  0  0  0  0  0  0
   22.3810   18.5090    8.1990 H   0  0  0  0  0  0  0  0  0  0  0  0
   20.8470   17.8110    7.6250 H   0  0  0  0  0  0  0  0  0  0  0  0
   21.3210   16.6530   10.2630 N   0  0  0  0  0  0  0  0  0  0  0  0
   21.0940   16.2700   11.1700 H   0  0  0  0  0  0  0  0  0  0  0  0
   20.9900   17.5720   10.0050 H   0  0  0  0  0  0  0  0  0  0  0  0
   27.0450   17.4570   10.4030 C   0  0  0  0  0  0  0  0  0  0  0  0
   26.0630   17.2760   10.8140 H   0  0  0  0  0  0  0  0  0  0  0  0
   27.7420   18.6460   10.7270 C   0  0  0  0  0  0  0  0  0  0  0  0
   27.2890   19.3670   11.3910 H   0  0  0  0  0  0  0  0  0  0  0  0
   29.0290   18.9000   10.1880 N   0  0  0  0  0  0  0  0  0  0  0  0
   29.6220   17.9540    9.3150 C   0  0  0  0  0  0  0  0  0  0  0  0
   30.6020   18.1380    8.9010 H   0  0  0  0  0  0  0  0  0  0  0  0
   28.9240   16.7660    8.9880 C   0  0  0  0  0  0  0  0  0  0  0  0
   29.3720   16.0510    8.3140 H   0  0  0  0  0  0  0  0  0  0  0  0
   23.5150   15.6060    6.3060 O   0  0  0  0  0  0  0  0  0  0  0  0
   23.0150   10.5220    7.3590 C   0  0  0  0  0  0  0  0  0  0  0  0
   23.2670   10.7410    6.3210 H   0  0  0  0  0  0  0  0  0  0  0  0
   21.9400   10.3650    7.4470 H   0  0  0  0  0  0  0  0  0  0  0  0
   23.5410    9.6230    7.6790 H   0  0  0  0  0  0  0  0  0  0  0  0
   23.0750   11.3910    9.7230 C   0  0  0  0  0  0  0  0  0  0  0  0
   23.3700   12.2260   10.3590 H   0  0  0  0  0  0  0  0  0  0  0  0
   23.6010   10.4900   10.0390 H   0  0  0  0  0  0  0  0  0  0  0  0
   22.0000   11.2320    9.8070 H   0  0  0  0  0  0  0  0  0  0  0  0
  1  2  2  0
  1  8  1  0
  1 21  1  0
  2  3  1  0
  2  4  1  0
  4  5  1  0
  4  6  2  0
  6  7  1  0
  6 10  1  0
  7  8  2  0
  7 15  1  0
  8  9  1  0
 10 11  1  0
 11 12  1  0
 11 39  1  0
 11 43  1  0
 12 13  1  0
 12 14  1  0
 15 12  1  6
 15 16  1  0
 15 19  1  0
 16 17  1  0
 16 38  2  0
 17 18  1  0
 17 22  1  0
 18 19  2  0
 18 26  1  0
 19 20  1  0
 21 29  2  0
 21 36  1  0
 22 23  1  0
 22 24  1  0
 22 25  1  0
 26 27  1  0
 26 28  1  0
 29 30  1  0
 29 31  1  0
 31 32  1  0
 31 33  2  0
 33 34  1  0
 34 35  1  0
 34 36  2  0
 36 37  1  0
 39 40  1  0
 39 41  1  0
 39 42  1  0
 43 44  1  0
 43 45  1  0
 43 46  1  0
M  CHG  1  19   1
M  END
>  <r_exp_dg>  (24) 
-7.13992

>  <experimental dG reference units>  (24) 
kcal/mol

>  <experimental dG reference field>  (24) 
r_exp_dg

>  <kJ/mol experimental dG>  (24) 
-29.873425280000003

>  <kcal/mol experimental dG>  (24) 
-7.13992

>  <AmberAM1BCCCache>  (24) 
gASVxQMAAAAAAABdlCiMFm51bXB5Ll9jb3JlLm11bHRpYXJyYXmUjAZzY2FsYXKUk5SMBW51bXB5lIwFZHR5cGWUk5SMAmY4lImIh5RSlChLA4wBPJROTk5K/////0r/////SwB0lGJDCGFO3EFG9eO/lIaUUpRoA2gJQwjWV+TwtpTjv5SGlFKUaANoCUMIctutB9PB/j+UhpRSlGgDaAlDCNCLEGP9Yvq/lIaUUpRoA2gJQwha0b52l4IAQJSGlFKUaANoCUMIAYtOFCBGAUCUhpRSlGgDaAlDCC3Z9G0xnQXAlIaUUpRoA2gJQwg2KeMPoabvv5SGlFKUaANoCUMIDKJWYxHW9j+UhpRSlGgDaAlDCILuWCp07gzAlIaUUpRoA2gJQwjrrbJw44f+P5SGlFKUaANoCUMIAKSnPapL87+UhpRSlGgDaAlDCG0Z5U2dCe8/lIaUUpRoA2gJQwhtGeVNnQnvP5SGlFKUaANoCUMIHvceOmJS7D+UhpRSlGgDaAlDCLy9/+gIhCBAlIaUUpRoA2gJQwjoiV8ts9MSwJSGlFKUaANoCUMIMpyai6l+FECUhpRSlGgDaAlDCM7gHcIvZxHAlIaUUpRoA2gJQwgb9iGCdmEPQJSGlFKUaANoCUMIK7EWOD4CyL+UhpRSlGgDaAlDCAVLPbIn5OQ/lIaUUpRoA2gJQwjJAVGYA/vvP5SGlFKUaANoCUMIyQFRmAP77z+UhpRSlGgDaAlDCMkBUZgD++8/lIaUUpRoA2gJQwgkbtx3+fkVwJSGlFKUaANoCUMISvcCmGRVD0CUhpRSlGgDaAlDCEr3AphkVQ9AlIaUUpRoA2gJQwj8vb12zbIGwJSGlFKUaANoCUMIvj6CNfLL+j+UhpRSlGgDaAlDCPGlyBnFFRNAlIaUUpRoA2gJQwjDUMeyuyraP5SGlFKUaANoCUMIKM/JRQRcHsCUhpRSlGgDaAlDCPGlyBnFFRNAlIaUUpRoA2gJQwjDUMeyuyraP5SGlFKUaANoCUMI/L29ds2yBsCUhpRSlGgDaAlDCL4+gjXyy/o/lIaUUpRoA2gJQwj+Lfdh03gVwJSGlFKUaANoCUMI+Kb+wB449b+UhpRSlGgDaAlDCJHWhfpqfuc/lIaUUpRoA2gJQwiR1oX6an7nP5SGlFKUaANoCUMIkdaF+mp+5z+UhpRSlGgDaAlDCPim/sAeOPW/lIaUUpRoA2gJQwiR1oX6an7nP5SGlFKUaANoCUMIkdaF+mp+5z+UhpRSlGgDaAlDCJHWhfpqfuc/lIaUUpRlLg==

$$$$
34
     RDKit          3D

 46 49  0  0  1  0  0  0  0  0999 V2000
   26.9470   15.3250    9.1860 C   0  0  0  0  0  0  0  0  0  0  0  0
   27.6320   14.0950    9.0140 C   0  0  0  0  0  0  0  0  0  0  0  0
   28.7000   14.0480    9.1690 H   0  0  0  0  0  0  0  0  0  0  0  0
   26.9220   12.9310    8.6410 C   0  0  0  0  0  0  0  0  0  0  0  0
   27.4460   11.9960    8.5080 H   0  0  0  0  0  0  0  0  0  0  0  0
   25.5210   12.9940    8.4420 C   0  0  0  0  0  0  0  0  0  0  0  0
   24.8260   14.2190    8.6190 C   0  0  0  0  0  0  0  0  0  0  0  0
   25.5440   15.3800    8.9820 C   0  0  0  0  0  0  0  0  0  0  0  0
   25.0210   16.3170    9.1050 H   0  0  0  0  0  0  0  0  0  0  0  0
   24.8500   11.8510    8.0940 O   0  0  0  0  0  0  0  0  0  0  0  0
   23.4360   11.7100    8.2520 C   0  0  0  0  0  0  0  0  0  0  0  0
   22.7180   13.0050    7.7980 C   0  0  0  0  0  0  0  0  0  0  0  0
   21.6740   12.9400    8.1030 H   0  0  0  0  0  0  0  0  0  0  0  0
   22.7760   13.0630    6.7110 H   0  0  0  0  0  0  0  0  0  0  0  0
   23.3110   14.3040    8.3820 C   0  0  2  0  0  0  0  0  0  0  0  0
   23.0360   15.4900    7.4390 C   0  0  0  0  0  0  0  0  0  0  0  0
   22.3290   16.4140    8.1240 N   0  0  0  0  0  0  0  0  0  0  0  0
   22.0880   15.9170    9.3720 C   0  0  0  0  0  0  0  0  0  0  0  0
   22.5740   14.7390    9.5680 N   0  0  0  0  0  0  0  0  0  0  0  0
   22.4630   14.1980   10.4140 H   0  0  0  0  0  0  0  0  0  0  0  0
   27.6390   16.5060    9.5380 C   0  0  0  0  0  0  0  0  0  0  0  0
   21.9330   17.7200    7.5940 C   0  0  0  0  0  0  0  0  0  0  0  0
   22.2760   17.8130    6.5640 H   0  0  0  0  0  0  0  0  0  0  0  0
   22.3810   18.5090    8.1990 H   0  0  0  0  0  0  0  0  0  0  0  0
   20.8470   17.8110    7.6250 H   0  0  0  0  0  0  0  0  0  0  0  0
   21.3210   16.6530   10.2630 N   0  0  0  0  0  0  0  0  0  0  0  0
   21.0940   16.2700   11.1700 H   0  0  0  0  0  0  0  0  0  0  0  0
   20.9900   17.5720   10.0050 H   0  0  0  0  0  0  0  0  0  0  0  0
   27.0450   17.4570   10.4030 C   0  0  0  0  0  0  0  0  0  0  0  0
   26.0630   17.2760   10.8140 H   0  0  0  0  0  0  0  0  0  0  0  0
   27.7420   18.6460   10.7270 C   0  0  0  0  0  0  0  0  0  0  0  0
   27.0060   19.8170   11.8050 Cl  0  0  0  0  0  0  0  0  0  0  0  0
   29.0290   18.9000   10.1880 C   0  0  0  0  0  0  0  0  0  0  0  0
   29.5540   19.8090   10.4410 H   0  0  0  0  0  0  0  0  0  0  0  0
   29.6220   17.9540    9.3150 N   0  0  0  0  0  0  0  0  0  0  0  0
   28.9240   16.7660    8.9880 C   0  0  0  0  0  0  0  0  0  0  0  0
   29.3720   16.0510    8.3140 H   0  0  0  0  0  0  0  0  0  0  0  0
   23.5150   15.6060    6.3060 O   0  0  0  0  0  0  0  0  0  0  0  0
   23.0150   10.5220    7.3590 C   0  0  0  0  0  0  0  0  0  0  0  0
   23.2670   10.7410    6.3210 H   0  0  0  0  0  0  0  0  0  0  0  0
   21.9400   10.3650    7.4470 H   0  0  0  0  0  0  0  0  0  0  0  0
   23.5410    9.6230    7.6790 H   0  0  0  0  0  0  0  0  0  0  0  0
   23.0750   11.3910    9.7230 C   0  0  0  0  0  0  0  0  0  0  0  0
   23.3700   12.2260   10.3590 H   0  0  0  0  0  0  0  0  0  0  0  0
   23.6010   10.4900   10.0390 H   0  0  0  0  0  0  0  0  0  0  0  0
   22.0000   11.2320    9.8070 H   0  0  0  0  0  0  0  0  0  0  0  0
  1  2  2  0
  1  8  1  0
  1 21  1  0
  2  3  1  0
  2  4  1  0
  4  5  1  0
  4  6  2  0
  6  7  1  0
  6 10  1  0
  7  8  2  0
  7 15  1  0
  8  9  1  0
 10 11  1  0
 11 12  1  0
 11 39  1  0
 11 43  1  0
 12 13  1  0
 12 14  1  0
 15 12  1  6
 15 16  1  0
 15 19  1  0
 16 17  1  0
 16 38  2  0
 17 18  1  0
 17 22  1  0
 18 19  2  0
 18 26  1  0
 19 20  1  0
 21 29  2  0
 21 36  1  0
 22 23  1  0
 22 24  1  0
 22 25  1  0
 26 27  1  0
 26 28  1  0
 29 30  1  0
 29 31  1  0
 31 32  1  0
 31 33  2  0
 33 34  1  0
 33 35  1  0
 35 36  2  0
 36 37  1  0
 39 40  1  0
 39 41  1  0
 39 42  1  0
 43 44  1  0
 43 45  1  0
 43 46  1  0
M  CHG  1  19   1
M  END
>  <r_exp_dg>  (25) 
-10.2494

>  <experimental dG reference units>  (25) 
kcal/mol

>  <experimental dG reference field>  (25) 
r_exp_dg

>  <kJ/mol experimental dG>  (25) 
-42.8834896

>  <kcal/mol experimental dG>  (25) 
-10.2494

>  <AmberAM1BCCCache>  (25) 
gASVxQMAAAAAAABdlCiMFm51bXB5Ll9jb3JlLm11bHRpYXJyYXmUjAZzY2FsYXKUk5SMBW51bXB5lIwFZHR5cGWUk5SMAmY4lImIh5RSlChLA4wBPJROTk5K/////0r/////SwB0lGJDCFxOa8G6muC/lIaUUpRoA2gJQwi0AitJNZ/jv5SGlFKUaANoCUMISIEGhNvs/j+UhpRSlGgDaAlDCMnXK+DLyPq/lIaUUpRoA2gJQwjoISmJP7AAQJSGlFKUaANoCUMIMNn2+uuLAUCUhpRSlGgDaAlDCM18wIA86AXAlIaUUpRoA2gJQwgg1wRWrpnwv5SGlFKUaANoCUMI4kev3xkB9z+UhpRSlGgDaAlDCDqZasAT8QzAlIaUUpRoA2gJQwirZhtLzfH9P5SGlFKUaANoCUMItfRGEjGB87+UhpRSlGgDaAlDCLomgUiKKPA/lIaUUpRoA2gJQwi6JoFIiijwP5SGlFKUaANoCUMIVTnIgwIJ7T+UhpRSlGgDaAlDCNTUTCRGcSBAlIaUUpRoA2gJQwhbWQOLXBETwJSGlFKUaANoCUMIM8lT7DVlFECUhpRSlGgDaAlDCOW6quQ3OBHAlIaUUpRoA2gJQwhMRMpoQqcPQJSGlFKUaANoCUMI9SwGOkeO/7+UhpRSlGgDaAlDCCeg9lmp2eQ/lIaUUpRoA2gJQwhJDsS3XdDvP5SGlFKUaANoCUMISQ7Et13Q7z+UhpRSlGgDaAlDCEkOxLdd0O8/lIaUUpRoA2gJQwivRMZYN+8VwJSGlFKUaANoCUMIZEsQ7NZeD0CUhpRSlGgDaAlDCGRLEOzWXg9AlIaUUpRoA2gJQwiV4AwFHznwv5SGlFKUaANoCUMIqtHKUxm4+z+UhpRSlGgDaAlDCOLofDfk+fO/lIaUUpRoA2gJQwhEwh9UZCbkv5SGlFKUaANoCUMIFD2/5ZzbE0CUhpRSlGgDaAlDCHlhGDkcROM/lIaUUpRoA2gJQwibqxiU6BQewJSGlFKUaANoCUMIt0eoqvtuE0CUhpRSlGgDaAlDCGUXUg8R9Ng/lIaUUpRoA2gJQwi2+BZoxOYVwJSGlFKUaANoCUMIaPwh7V099b+UhpRSlGgDaAlDCCRm+SPrJOg/lIaUUpRoA2gJQwgkZvkj6yToP5SGlFKUaANoCUMIJGb5I+sk6D+UhpRSlGgDaAlDCGj8Ie1dPfW/lIaUUpRoA2gJQwgkZvkj6yToP5SGlFKUaANoCUMIJGb5I+sk6D+UhpRSlGgDaAlDCCRm+SPrJOg/lIaUUpRlLg==

$$$$
35
     RDKit          3D

 49 52  0  0  1  0  0  0  0  0999 V2000
   26.9470   15.3250    9.1860 C   0  0  0  0  0  0  0  0  0  0  0  0
   27.6320   14.0950    9.0140 C   0  0  0  0  0  0  0  0  0  0  0  0
   28.7000   14.0480    9.1690 H   0  0  0  0  0  0  0  0  0  0  0  0
   26.9220   12.9310    8.6410 C   0  0  0  0  0  0  0  0  0  0  0  0
   27.4460   11.9960    8.5080 H   0  0  0  0  0  0  0  0  0  0  0  0
   25.5210   12.9940    8.4420 C   0  0  0  0  0  0  0  0  0  0  0  0
   24.8260   14.2190    8.6190 C   0  0  0  0  0  0  0  0  0  0  0  0
   25.5440   15.3800    8.9820 C   0  0  0  0  0  0  0  0  0  0  0  0
   25.0210   16.3170    9.1050 H   0  0  0  0  0  0  0  0  0  0  0  0
   24.8500   11.8510    8.0940 O   0  0  0  0  0  0  0  0  0  0  0  0
   23.4360   11.7100    8.2520 C   0  0  0  0  0  0  0  0  0  0  0  0
   22.7180   13.0050    7.7980 C   0  0  0  0  0  0  0  0  0  0  0  0
   21.6740   12.9400    8.1030 H   0  0  0  0  0  0  0  0  0  0  0  0
   22.7760   13.0630    6.7110 H   0  0  0  0  0  0  0  0  0  0  0  0
   23.3110   14.3040    8.3820 C   0  0  2  0  0  0  0  0  0  0  0  0
   23.0360   15.4900    7.4390 C   0  0  0  0  0  0  0  0  0  0  0  0
   22.3290   16.4140    8.1240 N   0  0  0  0  0  0  0  0  0  0  0  0
   22.0880   15.9170    9.3720 C   0  0  0  0  0  0  0  0  0  0  0  0
   22.5740   14.7390    9.5680 N   0  0  0  0  0  0  0  0  0  0  0  0
   22.4630   14.1980   10.4140 H   0  0  0  0  0  0  0  0  0  0  0  0
   27.6390   16.5060    9.5380 C   0  0  0  0  0  0  0  0  0  0  0  0
   21.9330   17.7200    7.5940 C   0  0  0  0  0  0  0  0  0  0  0  0
   22.2760   17.8130    6.5640 H   0  0  0  0  0  0  0  0  0  0  0  0
   22.3810   18.5090    8.1990 H   0  0  0  0  0  0  0  0  0  0  0  0
   20.8470   17.8110    7.6250 H   0  0  0  0  0  0  0  0  0  0  0  0
   21.3210   16.6530   10.2630 N   0  0  0  0  0  0  0  0  0  0  0  0
   21.0940   16.2700   11.1700 H   0  0  0  0  0  0  0  0  0  0  0  0
   20.9900   17.5720   10.0050 H   0  0  0  0  0  0  0  0  0  0  0  0
   27.0450   17.4570   10.4030 C   0  0  0  0  0  0  0  0  0  0  0  0
   26.0630   17.2760   10.8140 H   0  0  0  0  0  0  0  0  0  0  0  0
   27.7420   18.6460   10.7270 C   0  0  0  0  0  0  0  0  0  0  0  0
   27.1430   19.6000   11.6050 C   0  0  0  0  0  0  0  0  0  0  0  0
   25.8970   19.1420   12.0030 F   0  0  0  0  0  0  0  0  0  0  0  0
   27.0010   20.8100   10.9450 F   0  0  0  0  0  0  0  0  0  0  0  0
   27.9490   19.7720   12.7190 F   0  0  0  0  0  0  0  0  0  0  0  0
   29.0290   18.9000   10.1880 C   0  0  0  0  0  0  0  0  0  0  0  0
   29.5540   19.8090   10.4410 H   0  0  0  0  0  0  0  0  0  0  0  0
   29.6220   17.9540    9.3150 N   0  0  0  0  0  0  0  0  0  0  0  0
   28.9240   16.7660    8.9880 C   0  0  0  0  0  0  0  0  0  0  0  0
   29.3720   16.0510    8.3140 H   0  0  0  0  0  0  0  0  0  0  0  0
   23.5150   15.6060    6.3060 O   0  0  0  0  0  0  0  0  0  0  0  0
   23.0150   10.5220    7.3590 C   0  0  0  0  0  0  0  0  0  0  0  0
   23.2670   10.7410    6.3210 H   0  0  0  0  0  0  0  0  0  0  0  0
   21.9400   10.3650    7.4470 H   0  0  0  0  0  0  0  0  0  0  0  0
   23.5410    9.6230    7.6790 H   0  0  0  0  0  0  0  0  0  0  0  0
   23.0750   11.3910    9.7230 C   0  0  0  0  0  0  0  0  0  0  0  0
   23.3700   12.2260   10.3590 H   0  0  0  0  0  0  0  0  0  0  0  0
   23.6010   10.4900   10.0390 H   0  0  0  0  0  0  0  0  0  0  0  0
   22.0000   11.2320    9.8070 H   0  0  0  0  0  0  0  0  0  0  0  0
  1  2  2  0
  1  8  1  0
  1 21  1  0
  2  3  1  0
  2  4  1  0
  4  5  1  0
  4  6  2  0
  6  7  1  0
  6 10  1  0
  7  8  2  0
  7 15  1  0
  8  9  1  0
 10 11  1  0
 11 12  1  0
 11 42  1  0
 11 46  1  0
 12 13  1  0
 12 14  1  0
 15 12  1  6
 15 16  1  0
 15 19  1  0
 16 17  1  0
 16 41  2  0
 17 18  1  0
 17 22  1  0
 18 19  2  0
 18 26  1  0
 19 20  1  0
 21 29  2  0
 21 39  1  0
 22 23  1  0
 22 24  1  0
 22 25  1  0
 26 27  1  0
 26 28  1  0
 29 30  1  0
 29 31  1  0
 31 32  1  0
 31 36  2  0
 32 33  1  0
 32 34  1  0
 32 35  1  0
 36 37  1  0
 36 38  1  0
 38 39  2  0
 39 40  1  0
 42 43  1  0
 42 44  1  0
 42 45  1  0
 46 47  1  0
 46 48  1  0
 46 49  1  0
M  CHG  1  19   1
M  END
>  <r_exp_dg>  (26) 
-9.88176

>  <experimental dG reference units>  (26) 
kcal/mol

>  <experimental dG reference field>  (26) 
r_exp_dg

>  <kJ/mol experimental dG>  (26) 
-41.34528384

>  <kcal/mol experimental dG>  (26) 
-9.88176

>  <AmberAM1BCCCache>  (26) 
gASV/gMAAAAAAABdlCiMFm51bXB5Ll9jb3JlLm11bHRpYXJyYXmUjAZzY2FsYXKUk5SMBW51bXB5lIwFZHR5cGWUk5SMAmY4lImIh5RSlChLA4wBPJROTk5K/////0r/////SwB0lGJDCBVlmfgNc+K/lIaUUpRoA2gJQwgrUomaLDTjv5SGlFKUaANoCUMIA2NfitDB/j+UhpRSlGgDaAlDCIT/2ohHk/q/lIaUUpRoA2gJQwgKjtG0AcsAQJSGlFKUaANoCUMI9kLd+tG+AUCUhpRSlGgDaAlDCKsQGFV6zQXAlIaUUpRoA2gJQwiWAzhW4jPwv5SGlFKUaANoCUMI4SSEjlYG9z+UhpRSlGgDaAlDCBgtwpRR1gzAlIaUUpRoA2gJQwirQ/D5Cff9P5SGlFKUaANoCUMI/BLuCzys87+UhpRSlGgDaAlDCFwBlMvqRfA/lIaUUpRoA2gJQwhcAZTL6kXwP5SGlFKUaANoCUMIU/Nx4XsT7T+UhpRSlGgDaAlDCAvxF8XkayBAlIaUUpRoA2gJQwgbIk5fDRATwJSGlFKUaANoCUMIRP8nApdyFECUhpRSlGgDaAlDCBqAUnceWxHAlIaUUpRoA2gJQwhusHKUBMIPQJSGlFKUaANoCUMIehSY3KyLAMCUhpRSlGgDaAlDCCZaoLci5OQ/lIaUUpRoA2gJQwjoELSd/vrvP5SGlFKUaANoCUMI6BC0nf767z+UhpRSlGgDaAlDCOgQtJ3++u8/lIaUUpRoA2gJQwidDvJC1uEVwJSGlFKUaANoCUMI47l6Q3VhD0CUhpRSlGgDaAlDCOO5ekN1YQ9AlIaUUpRoA2gJQwi0C0QwExPYv5SGlFKUaANoCUMIA2NfitDB/j+UhpRSlGgDaAlDCA35zDgj1ArAlIaUUpRoA2gJQwifF2BIFWogQJSGlFKUaANoCUMIpa7zEdFcBcCUhpRSlGgDaAlDCKWu8xHRXAXAlIaUUpRoA2gJQwilrvMR0VwFwJSGlFKUaANoCUMIOUYtvKazFUCUhpRSlGgDaAlDCC7smStiMeU/lIaUUpRoA2gJQwihYjQgpsgewJSGlFKUaANoCUMIDWxNeGkxFECUhpRSlGgDaAlDCLMiJrsOANM/lIaUUpRoA2gJQwh2wWE8deUVwJSGlFKUaANoCUMIDB2LEkVQ9b+UhpRSlGgDaAlDCGYbHyqsX+g/lIaUUpRoA2gJQwhmGx8qrF/oP5SGlFKUaANoCUMIZhsfKqxf6D+UhpRSlGgDaAlDCAwdixJFUPW/lIaUUpRoA2gJQwhmGx8qrF/oP5SGlFKUaANoCUMIZhsfKqxf6D+UhpRSlGgDaAlDCGYbHyqsX+g/lIaUUpRlLg==

$$$$
36
     RDKit          3D

 51 54  0  0  1  0  0  0  0  0999 V2000
   26.9470   15.3250    9.1860 C   0  0  0  0  0  0  0  0  0  0  0  0
   27.6320   14.0950    9.0140 C   0  0  0  0  0  0  0  0  0  0  0  0
   28.7000   14.0480    9.1690 H   0  0  0  0  0  0  0  0  0  0  0  0
   26.9220   12.9310    8.6410 C   0  0  0  0  0  0  0  0  0  0  0  0
   27.4460   11.9960    8.5080 H   0  0  0  0  0  0  0  0  0  0  0  0
   25.5210   12.9940    8.4420 C   0  0  0  0  0  0  0  0  0  0  0  0
   24.8260   14.2190    8.6190 C   0  0  0  0  0  0  0  0  0  0  0  0
   25.5440   15.3800    8.9820 C   0  0  0  0  0  0  0  0  0  0  0  0
   25.0210   16.3170    9.1050 H   0  0  0  0  0  0  0  0  0  0  0  0
   24.8500   11.8510    8.0940 O   0  0  0  0  0  0  0  0  0  0  0  0
   23.4360   11.7100    8.2520 C   0  0  0  0  0  0  0  0  0  0  0  0
   22.7180   13.0050    7.7980 C   0  0  0  0  0  0  0  0  0  0  0  0
   21.6740   12.9400    8.1030 H   0  0  0  0  0  0  0  0  0  0  0  0
   22.7760   13.0630    6.7110 H   0  0  0  0  0  0  0  0  0  0  0  0
   23.3110   14.3040    8.3820 C   0  0  2  0  0  0  0  0  0  0  0  0
   23.0360   15.4900    7.4390 C   0  0  0  0  0  0  0  0  0  0  0  0
   22.3290   16.4140    8.1240 N   0  0  0  0  0  0  0  0  0  0  0  0
   22.0880   15.9170    9.3720 C   0  0  0  0  0  0  0  0  0  0  0  0
   22.5740   14.7390    9.5680 N   0  0  0  0  0  0  0  0  0  0  0  0
   22.4630   14.1980   10.4140 H   0  0  0  0  0  0  0  0  0  0  0  0
   27.6390   16.5060    9.5380 C   0  0  0  0  0  0  0  0  0  0  0  0
   21.9330   17.7200    7.5940 C   0  0  0  0  0  0  0  0  0  0  0  0
   22.2760   17.8130    6.5640 H   0  0  0  0  0  0  0  0  0  0  0  0
   22.3810   18.5090    8.1990 H   0  0  0  0  0  0  0  0  0  0  0  0
   20.8470   17.8110    7.6250 H   0  0  0  0  0  0  0  0  0  0  0  0
   21.3210   16.6530   10.2630 N   0  0  0  0  0  0  0  0  0  0  0  0
   21.0940   16.2700   11.1700 H   0  0  0  0  0  0  0  0  0  0  0  0
   20.9900   17.5720   10.0050 H   0  0  0  0  0  0  0  0  0  0  0  0
   27.0450   17.4570   10.4030 C   0  0  0  0  0  0  0  0  0  0  0  0
   26.0630   17.2760   10.8140 H   0  0  0  0  0  0  0  0  0  0  0  0
   27.7420   18.6460   10.7270 C   0  0  0  0  0  0  0  0  0  0  0  0
   29.0290   18.9000   10.1880 C   0  0  0  0  0  0  0  0  0  0  0  0
   29.5540   19.8090   10.4410 H   0  0  0  0  0  0  0  0  0  0  0  0
   29.6220   17.9540    9.3150 N   0  0  0  0  0  0  0  0  0  0  0  0
   28.9240   16.7660    8.9880 C   0  0  0  0  0  0  0  0  0  0  0  0
   29.3720   16.0510    8.3140 H   0  0  0  0  0  0  0  0  0  0  0  0
   23.5150   15.6060    6.3060 O   0  0  0  0  0  0  0  0  0  0  0  0
   23.0150   10.5220    7.3590 C   0  0  0  0  0  0  0  0  0  0  0  0
   23.2670   10.7410    6.3210 H   0  0  0  0  0  0  0  0  0  0  0  0
   21.9400   10.3650    7.4470 H   0  0  0  0  0  0  0  0  0  0  0  0
   23.5410    9.6230    7.6790 H   0  0  0  0  0  0  0  0  0  0  0  0
   23.0750   11.3910    9.7230 C   0  0  0  0  0  0  0  0  0  0  0  0
   23.3700   12.2260   10.3590 H   0  0  0  0  0  0  0  0  0  0  0  0
   23.6010   10.4900   10.0390 H   0  0  0  0  0  0  0  0  0  0  0  0
   22.0000   11.2320    9.8070 H   0  0  0  0  0  0  0  0  0  0  0  0
   27.1330   19.6280   11.5960 C   0  0  0  0  0  0  0  0  0  0  0  0
   26.5100   20.5730   12.4670 C   0  0  0  0  0  0  0  0  0  0  0  0
   25.8880   21.5180   13.3380 C   0  0  0  0  0  0  0  0  0  0  0  0
   26.6540   22.0610   13.8920 H   0  0  0  0  0  0  0  0  0  0  0  0
   25.2370   20.9940   14.0370 H   0  0  0  0  0  0  0  0  0  0  0  0
   25.2980   22.2210   12.7490 H   0  0  0  0  0  0  0  0  0  0  0  0
  1  2  2  0
  1  8  1  0
  1 21  1  0
  2  3  1  0
  2  4  1  0
  4  5  1  0
  4  6  2  0
  6  7  1  0
  6 10  1  0
  7  8  2  0
  7 15  1  0
  8  9  1  0
 10 11  1  0
 11 12  1  0
 11 38  1  0
 11 42  1  0
 12 13  1  0
 12 14  1  0
 15 12  1  6
 15 16  1  0
 15 19  1  0
 16 17  1  0
 16 37  2  0
 17 18  1  0
 17 22  1  0
 18 19  2  0
 18 26  1  0
 19 20  1  0
 21 29  2  0
 21 35  1  0
 22 23  1  0
 22 24  1  0
 22 25  1  0
 26 27  1  0
 26 28  1  0
 29 30  1  0
 29 31  1  0
 31 32  2  0
 31 46  1  0
 32 33  1  0
 32 34  1  0
 34 35  2  0
 35 36  1  0
 38 39  1  0
 38 40  1  0
 38 41  1  0
 42 43  1  0
 42 44  1  0
 42 45  1  0
 46 47  3  0
 47 48  1  0
 48 49  1  0
 48 50  1  0
 48 51  1  0
M  CHG  1  19   1
M  END
>  <r_exp_dg>  (27) 
-10.9787

>  <experimental dG reference units>  (27) 
kcal/mol

>  <experimental dG reference field>  (27) 
r_exp_dg

>  <kJ/mol experimental dG>  (27) 
-45.9348808

>  <kcal/mol experimental dG>  (27) 
-10.9787

>  <AmberAM1BCCCache>  (27) 
gASVJAQAAAAAAABdlCiMFm51bXB5Ll9jb3JlLm11bHRpYXJyYXmUjAZzY2FsYXKUk5SMBW51bXB5lIwFZHR5cGWUk5SMAmY4lImIh5RSlChLA4wBPJROTk5K/////0r/////SwB0lGJDCEezIOSV4Nu/lIaUUpRoA2gJQwhqr3+jXrrkv5SGlFKUaANoCUMIoCQsYqaf/j+UhpRSlGgDaAlDCDVEviUSdfq/lIaUUpRoA2gJQwhd9NEGmYEAQJSGlFKUaANoCUMI9bFP7eUcAUCUhpRSlGgDaAlDCGC1S887pgXAlIaUUpRoA2gJQwh7LS8DQyfxv5SGlFKUaANoCUMI6+QkSUT09j+UhpRSlGgDaAlDCOzJGX2K/wzAlIaUUpRoA2gJQwho/eA/VyX+P5SGlFKUaANoCUMIZlxVAL9d87+UhpRSlGgDaAlDCCSUTU2qtu8/lIaUUpRoA2gJQwgklE1NqrbvP5SGlFKUaANoCUMIA4ATQJhu7D+UhpRSlGgDaAlDCEaHmlu9eyBAlIaUUpRoA2gJQwg/9f0qYvQSwJSGlFKUaANoCUMIdTCxhgBiFECUhpRSlGgDaAlDCD5TAkNzPxHAlIaUUpRoA2gJQwjDFnPmm3gPQJSGlFKUaANoCUMIxjm8YWVeAMCUhpRSlGgDaAlDCBLXifIt4OQ/lIaUUpRoA2gJQwjAsm4omuHvP5SGlFKUaANoCUMIwLJuKJrh7z+UhpRSlGgDaAlDCMCybiia4e8/lIaUUpRoA2gJQwhs3Wi+bPIVwJSGlFKUaANoCUMI6BnLIGxYD0CUhpRSlGgDaAlDCOgZyyBsWA9AlIaUUpRoA2gJQwgEKw8RNQLqv5SGlFKUaANoCUMISXBs2iub+z+UhpRSlGgDaAlDCN8/Tfq1F+W/lIaUUpRoA2gJQwhtnrcSwRQUQJSGlFKUaANoCUMI5eCTD1Zm4D+UhpRSlGgDaAlDCAoxYJRC3R7AlIaUUpRoA2gJQwieue4JJf8SQJSGlFKUaANoCUMIN9lTd6hXxT+UhpRSlGgDaAlDCJqUEQjKyRXAlIaUUpRoA2gJQwi8YW6vDzL1v5SGlFKUaANoCUMIhaaUa+DK5z+UhpRSlGgDaAlDCIWmlGvgyuc/lIaUUpRoA2gJQwiFppRr4MrnP5SGlFKUaANoCUMIvGFurw8y9b+UhpRSlGgDaAlDCIWmlGvgyuc/lIaUUpRoA2gJQwiFppRr4MrnP5SGlFKUaANoCUMIhaaUa+DK5z+UhpRSlGgDaAlDCDq+IXYAzf+/lIaUUpRoA2gJQwhjstYm06bmv5SGlFKUaANoCUMIBuxQ/jmd2b+UhpRSlGgDaAlDCP6Y5RVtuOk/lIaUUpRoA2gJQwj+mOUVbbjpP5SGlFKUaANoCUMI/pjlFW246T+UhpRSlGUu

$$$$
37
     RDKit          3D

 46 49  0  0  1  0  0  0  0  0999 V2000
   26.9470   15.3250    9.1860 C   0  0  0  0  0  0  0  0  0  0  0  0
   27.6320   14.0950    9.0140 C   0  0  0  0  0  0  0  0  0  0  0  0
   28.7000   14.0480    9.1690 H   0  0  0  0  0  0  0  0  0  0  0  0
   26.9220   12.9310    8.6410 C   0  0  0  0  0  0  0  0  0  0  0  0
   27.4460   11.9960    8.5080 H   0  0  0  0  0  0  0  0  0  0  0  0
   25.5210   12.9940    8.4420 C   0  0  0  0  0  0  0  0  0  0  0  0
   24.8260   14.2190    8.6190 C   0  0  0  0  0  0  0  0  0  0  0  0
   25.5440   15.3800    8.9820 C   0  0  0  0  0  0  0  0  0  0  0  0
   25.0210   16.3170    9.1050 H   0  0  0  0  0  0  0  0  0  0  0  0
   24.8500   11.8510    8.0940 O   0  0  0  0  0  0  0  0  0  0  0  0
   23.4360   11.7100    8.2520 C   0  0  0  0  0  0  0  0  0  0  0  0
   22.7180   13.0050    7.7980 C   0  0  0  0  0  0  0  0  0  0  0  0
   21.6740   12.9400    8.1030 H   0  0  0  0  0  0  0  0  0  0  0  0
   22.7760   13.0630    6.7110 H   0  0  0  0  0  0  0  0  0  0  0  0
   23.3110   14.3040    8.3820 C   0  0  2  0  0  0  0  0  0  0  0  0
   23.0360   15.4900    7.4390 C   0  0  0  0  0  0  0  0  0  0  0  0
   22.3290   16.4140    8.1240 N   0  0  0  0  0  0  0  0  0  0  0  0
   22.0880   15.9170    9.3720 C   0  0  0  0  0  0  0  0  0  0  0  0
   22.5740   14.7390    9.5680 N   0  0  0  0  0  0  0  0  0  0  0  0
   22.4630   14.1980   10.4140 H   0  0  0  0  0  0  0  0  0  0  0  0
   27.6390   16.5060    9.5380 C   0  0  0  0  0  0  0  0  0  0  0  0
   21.9330   17.7200    7.5940 C   0  0  0  0  0  0  0  0  0  0  0  0
   22.2760   17.8130    6.5640 H   0  0  0  0  0  0  0  0  0  0  0  0
   22.3810   18.5090    8.1990 H   0  0  0  0  0  0  0  0  0  0  0  0
   20.8470   17.8110    7.6250 H   0  0  0  0  0  0  0  0  0  0  0  0
   21.3210   16.6530   10.2630 N   0  0  0  0  0  0  0  0  0  0  0  0
   21.0940   16.2700   11.1700 H   0  0  0  0  0  0  0  0  0  0  0  0
   20.9900   17.5720   10.0050 H   0  0  0  0  0  0  0  0  0  0  0  0
   27.0450   17.4570   10.4030 C   0  0  0  0  0  0  0  0  0  0  0  0
   26.0630   17.2760   10.8140 H   0  0  0  0  0  0  0  0  0  0  0  0
   27.7420   18.6460   10.7270 C   0  0  0  0  0  0  0  0  0  0  0  0
   27.2890   19.3670   11.3910 H   0  0  0  0  0  0  0  0  0  0  0  0
   29.0290   18.9000   10.1880 C   0  0  0  0  0  0  0  0  0  0  0  0
   29.5540   19.8090   10.4410 H   0  0  0  0  0  0  0  0  0  0  0  0
   29.6220   17.9540    9.3150 N   0  0  0  0  0  0  0  0  0  0  0  0
   28.9240   16.7660    8.9880 C   0  0  0  0  0  0  0  0  0  0  0  0
   29.4990   15.8480    8.1230 F   0  0  0  0  0  0  0  0  0  0  0  0
   23.5150   15.6060    6.3060 O   0  0  0  0  0  0  0  0  0  0  0  0
   23.0150   10.5220    7.3590 C   0  0  0  0  0  0  0  0  0  0  0  0
   23.2670   10.7410    6.3210 H   0  0  0  0  0  0  0  0  0  0  0  0
   21.9400   10.3650    7.4470 H   0  0  0  0  0  0  0  0  0  0  0  0
   23.5410    9.6230    7.6790 H   0  0  0  0  0  0  0  0  0  0  0  0
   23.0750   11.3910    9.7230 C   0  0  0  0  0  0  0  0  0  0  0  0
   23.3700   12.2260   10.3590 H   0  0  0  0  0  0  0  0  0  0  0  0
   23.6010   10.4900   10.0390 H   0  0  0  0  0  0  0  0  0  0  0  0
   22.0000   11.2320    9.8070 H   0  0  0  0  0  0  0  0  0  0  0  0
  1  2  2  0
  1  8  1  0
  1 21  1  0
  2  3  1  0
  2  4  1  0
  4  5  1  0
  4  6  2  0
  6  7  1  0
  6 10  1  0
  7  8  2  0
  7 15  1  0
  8  9  1  0
 10 11  1  0
 11 12  1  0
 11 39  1  0
 11 43  1  0
 12 13  1  0
 12 14  1  0
 15 12  1  6
 15 16  1  0
 15 19  1  0
 16 17  1  0
 16 38  2  0
 17 18  1  0
 17 22  1  0
 18 19  2  0
 18 26  1  0
 19 20  1  0
 21 29  2  0
 21 36  1  0
 22 23  1  0
 22 24  1  0
 22 25  1  0
 26 27  1  0
 26 28  1  0
 29 30  1  0
 29 31  1  0
 31 32  1  0
 31 33  2  0
 33 34  1  0
 33 35  1  0
 35 36  2  0
 36 37  1  0
 39 40  1  0
 39 41  1  0
 39 42  1  0
 43 44  1  0
 43 45  1  0
 43 46  1  0
M  CHG  1  19   1
M  END
>  <r_exp_dg>  (28) 
-9.45002

>  <experimental dG reference units>  (28) 
kcal/mol

>  <experimental dG reference field>  (28) 
r_exp_dg

>  <kJ/mol experimental dG>  (28) 
-39.538883680000005

>  <kcal/mol experimental dG>  (28) 
-9.45002

>  <AmberAM1BCCCache>  (28) 
gASVxQMAAAAAAABdlCiMFm51bXB5Ll9jb3JlLm11bHRpYXJyYXmUjAZzY2FsYXKUk5SMBW51bXB5lIwFZHR5cGWUk5SMAmY4lImIh5RSlChLA4wBPJROTk5K/////0r/////SwB0lGJDCH2mZnfXI9i/lIaUUpRoA2gJQwgwgwKxPF7kv5SGlFKUaANoCUMIraQCwwWv/z+UhpRSlGgDaAlDCPTe07QcVPi/lIaUUpRoA2gJQwgnRPXaWWgAQJSGlFKUaANoCUMIqMu6+3ML+j+UhpRSlGgDaAlDCKmV5nSi1APAlIaUUpRoA2gJQwhW9Ylvogbqv5SGlFKUaANoCUMInR9rpr7H+j+UhpRSlGgDaAlDCCU3KNHAxA/AlIaUUpRoA2gJQwhvpi+XSZL9P5SGlFKUaANoCUMI8rQyxrTg87+UhpRSlGgDaAlDCO478YCLe/E/lIaUUpRoA2gJQwjuO/GAi3vxP5SGlFKUaANoCUMIVipRUEPD5z+UhpRSlGgDaAlDCBJYS1adlSBAlIaUUpRoA2gJQwg8SB1iTzUTwJSGlFKUaANoCUMIDNISfMCVFECUhpRSlGgDaAlDCK+vKSnRHxHAlIaUUpRoA2gJQwiKIRwVu2QQQJSGlFKUaANoCUMINqY0p6crA8CUhpRSlGgDaAlDCGLw9oZu/eU/lIaUUpRoA2gJQwhYhOSg5XHvP5SGlFKUaANoCUMIWITkoOVx7z+UhpRSlGgDaAlDCFiE5KDlce8/lIaUUpRoA2gJQwiPM+AvKhMWwJSGlFKUaANoCUMIuWd30EpTD0CUhpRSlGgDaAlDCLlnd9BKUw9AlIaUUpRoA2gJQwieJLLa1SPov5SGlFKUaANoCUMIckWLYoFF+T+UhpRSlGgDaAlDCC0khkBaWwjAlIaUUpRoA2gJQwg7z6bWgPz9P5SGlFKUaANoCUMIpTCs62nlFECUhpRSlGgDaAlDCFz9WN5mY+E/lIaUUpRoA2gJQwgGd9Ta9KIfwJSGlFKUaANoCUMIhQBbfHj2HUCUhpRSlGgDaAlDCF7EwiGAAgTAlIaUUpRoA2gJQwjF6BFVpf4VwJSGlFKUaANoCUMIHOBrMcgy9L+UhpRSlGgDaAlDCJZiIbK9lOY/lIaUUpRoA2gJQwiWYiGyvZTmP5SGlFKUaANoCUMIlmIhsr2U5j+UhpRSlGgDaAlDCBzgazHIMvS/lIaUUpRoA2gJQwiWYiGyvZTmP5SGlFKUaANoCUMIlmIhsr2U5j+UhpRSlGgDaAlDCJZiIbK9lOY/lIaUUpRlLg==

$$$$
38
     RDKit          3D

 46 49  0  0  1  0  0  0  0  0999 V2000
   26.9470   15.3250    9.1860 C   0  0  0  0  0  0  0  0  0  0  0  0
   27.6320   14.0950    9.0140 C   0  0  0  0  0  0  0  0  0  0  0  0
   28.7000   14.0480    9.1690 H   0  0  0  0  0  0  0  0  0  0  0  0
   26.9220   12.9310    8.6410 C   0  0  0  0  0  0  0  0  0  0  0  0
   27.4460   11.9960    8.5080 H   0  0  0  0  0  0  0  0  0  0  0  0
   25.5210   12.9940    8.4420 C   0  0  0  0  0  0  0  0  0  0  0  0
   24.8260   14.2190    8.6190 C   0  0  0  0  0  0  0  0  0  0  0  0
   25.5440   15.3800    8.9820 C   0  0  0  0  0  0  0  0  0  0  0  0
   25.0210   16.3170    9.1050 H   0  0  0  0  0  0  0  0  0  0  0  0
   24.8500   11.8510    8.0940 O   0  0  0  0  0  0  0  0  0  0  0  0
   23.4360   11.7100    8.2520 C   0  0  0  0  0  0  0  0  0  0  0  0
   22.7180   13.0050    7.7980 C   0  0  0  0  0  0  0  0  0  0  0  0
   21.6740   12.9400    8.1030 H   0  0  0  0  0  0  0  0  0  0  0  0
   22.7760   13.0630    6.7110 H   0  0  0  0  0  0  0  0  0  0  0  0
   23.3110   14.3040    8.3820 C   0  0  2  0  0  0  0  0  0  0  0  0
   23.0360   15.4900    7.4390 C   0  0  0  0  0  0  0  0  0  0  0  0
   22.3290   16.4140    8.1240 N   0  0  0  0  0  0  0  0  0  0  0  0
   22.0880   15.9170    9.3720 C   0  0  0  0  0  0  0  0  0  0  0  0
   22.5740   14.7390    9.5680 N   0  0  0  0  0  0  0  0  0  0  0  0
   22.4630   14.1980   10.4140 H   0  0  0  0  0  0  0  0  0  0  0  0
   27.6390   16.5060    9.5380 C   0  0  0  0  0  0  0  0  0  0  0  0
   21.9330   17.7200    7.5940 C   0  0  0  0  0  0  0  0  0  0  0  0
   22.2760   17.8130    6.5640 H   0  0  0  0  0  0  0  0  0  0  0  0
   22.3810   18.5090    8.1990 H   0  0  0  0  0  0  0  0  0  0  0  0
   20.8470   17.8110    7.6250 H   0  0  0  0  0  0  0  0  0  0  0  0
   21.3210   16.6530   10.2630 N   0  0  0  0  0  0  0  0  0  0  0  0
   21.0940   16.2700   11.1700 H   0  0  0  0  0  0  0  0  0  0  0  0
   20.9900   17.5720   10.0050 H   0  0  0  0  0  0  0  0  0  0  0  0
   27.0450   17.4570   10.4030 C   0  0  0  0  0  0  0  0  0  0  0  0
   26.0630   17.2760   10.8140 H   0  0  0  0  0  0  0  0  0  0  0  0
   27.7420   18.6460   10.7270 C   0  0  0  0  0  0  0  0  0  0  0  0
   27.1610   19.5710   11.5800 F   0  0  0  0  0  0  0  0  0  0  0  0
   29.0290   18.9000   10.1880 C   0  0  0  0  0  0  0  0  0  0  0  0
   29.5540   19.8090   10.4410 H   0  0  0  0  0  0  0  0  0  0  0  0
   29.6220   17.9540    9.3150 N   0  0  0  0  0  0  0  0  0  0  0  0
   28.9240   16.7660    8.9880 C   0  0  0  0  0  0  0  0  0  0  0  0
   29.3720   16.0510    8.3140 H   0  0  0  0  0  0  0  0  0  0  0  0
   23.5150   15.6060    6.3060 O   0  0  0  0  0  0  0  0  0  0  0  0
   23.0150   10.5220    7.3590 C   0  0  0  0  0  0  0  0  0  0  0  0
   23.2670   10.7410    6.3210 H   0  0  0  0  0  0  0  0  0  0  0  0
   21.9400   10.3650    7.4470 H   0  0  0  0  0  0  0  0  0  0  0  0
   23.5410    9.6230    7.6790 H   0  0  0  0  0  0  0  0  0  0  0  0
   23.0750   11.3910    9.7230 C   0  0  0  0  0  0  0  0  0  0  0  0
   23.3700   12.2260   10.3590 H   0  0  0  0  0  0  0  0  0  0  0  0
   23.6010   10.4900   10.0390 H   0  0  0  0  0  0  0  0  0  0  0  0
   22.0000   11.2320    9.8070 H   0  0  0  0  0  0  0  0  0  0  0  0
  1  2  2  0
  1  8  1  0
  1 21  1  0
  2  3  1  0
  2  4  1  0
  4  5  1  0
  4  6  2  0
  6  7  1  0
  6 10  1  0
  7  8  2  0
  7 15  1  0
  8  9  1  0
 10 11  1  0
 11 12  1  0
 11 39  1  0
 11 43  1  0
 12 13  1  0
 12 14  1  0
 15 12  1  6
 15 16  1  0
 15 19  1  0
 16 17  1  0
 16 38  2  0
 17 18  1  0
 17 22  1  0
 18 19  2  0
 18 26  1  0
 19 20  1  0
 21 29  2  0
 21 36  1  0
 22 23  1  0
 22 24  1  0
 22 25  1  0
 26 27  1  0
 26 28  1  0
 29 30  1  0
 29 31  1  0
 31 32  1  0
 31 33  2  0
 33 34  1  0
 33 35  1  0
 35 36  2  0
 36 37  1  0
 39 40  1  0
 39 41  1  0
 39 42  1  0
 43 44  1  0
 43 45  1  0
 43 46  1  0
M  CHG  1  19   1
M  END
>  <r_exp_dg>  (29) 
-9.38493

>  <experimental dG reference units>  (29) 
kcal/mol

>  <experimental dG reference field>  (29) 
r_exp_dg

>  <kJ/mol experimental dG>  (29) 
-39.266547120000006

>  <kcal/mol experimental dG>  (29) 
-9.38493

>  <AmberAM1BCCCache>  (29) 
gASVxQMAAAAAAABdlCiMFm51bXB5Ll9jb3JlLm11bHRpYXJyYXmUjAZzY2FsYXKUk5SMBW51bXB5lIwFZHR5cGWUk5SMAmY4lImIh5RSlChLA4wBPJROTk5K/////0r/////SwB0lGJDCEVCY8pOuuG/lIaUUpRoA2gJQwhxHEMOjDzjv5SGlFKUaANoCUMIJnn+eOjt/j+UhpRSlGgDaAlDCOzfM+u+x/q/lIaUUpRoA2gJQwjWHaUDxrAAQJSGlFKUaANoCUMIwtKwSZakAUCUhpRSlGgDaAlDCN6ARAa25wXAlIaUUpRoA2gJQwi56BQQEjjwv5SGlFKUaANoCUMIvj+n1CYC9z+UhpRSlGgDaAlDCEud7kWN8AzAlIaUUpRoA2gJQwiJXhNA2vL9P5SGlFKUaANoCUMI2fxOHSSA87+UhpRSlGgDaAlDCJYeeT2XKfA/lIaUUpRoA2gJQwiWHnk9lynwP5SGlFKUaANoCUMIDSm4bRwL7T+UhpRSlGgDaAlDCM/T68JncSBAlIaUUpRoA2gJQwhjW8VNGRETwJSGlFKUaANoCUMIKseRKXllFECUhpRSlGgDaAlDCL+7i5EGRBHAlIaUUpRoA2gJQwjdPYS37L8PQJSGlFKUaANoCUMI7o7aw+j3+7+UhpRSlGgDaAlDCOCP5kPD2+Q/lIaUUpRoA2gJQwihRvopn/LvP5SGlFKUaANoCUMIoUb6KZ/y7z+UhpRSlGgDaAlDCKFG+imf8u8/lIaUUpRoA2gJQwi3Rogb9O4VwJSGlFKUaANoCUMIUkeMZl1fD0CUhpRSlGgDaAlDCFJHjGZdXw9AlIaUUpRoA2gJQwirGGQFY4T4v5SGlFKUaANoCUMIWLs2Qv1J/D+UhpRSlGgDaAlDCNZdduaWC8k/lIaUUpRoA2gJQwgZqsghCs32v5SGlFKUaANoCUMIyGaCTEkdEkCUhpRSlGgDaAlDCEc++MRUB+Q/lIaUUpRoA2gJQwgDvUdzvHcdwJSGlFKUaANoCUMImFj2RSCuEkCUhpRSlGgDaAlDCALRESeCeto/lIaUUpRoA2gJQwi/+tgqgeYVwJSGlFKUaANoCUMIjAQq+FA89b+UhpRSlGgDaAlDCNxV6Q0FJ+g/lIaUUpRoA2gJQwjcVekNBSfoP5SGlFKUaANoCUMI3FXpDQUn6D+UhpRSlGgDaAlDCIwEKvhQPPW/lIaUUpRoA2gJQwjcVekNBSfoP5SGlFKUaANoCUMI3FXpDQUn6D+UhpRSlGgDaAlDCNxV6Q0FJ+g/lIaUUpRlLg==

$$$$
39
     RDKit          3D

 45 48  0  0  1  0  0  0  0  0999 V2000
   26.9470   15.3250    9.1860 C   0  0  0  0  0  0  0  0  0  0  0  0
   27.6320   14.0950    9.0140 C   0  0  0  0  0  0  0  0  0  0  0  0
   28.7000   14.0480    9.1690 H   0  0  0  0  0  0  0  0  0  0  0  0
   26.9220   12.9310    8.6410 C   0  0  0  0  0  0  0  0  0  0  0  0
   27.4460   11.9960    8.5080 H   0  0  0  0  0  0  0  0  0  0  0  0
   25.5210   12.9940    8.4420 C   0  0  0  0  0  0  0  0  0  0  0  0
   24.8260   14.2190    8.6190 C   0  0  0  0  0  0  0  0  0  0  0  0
   25.5440   15.3800    8.9820 C   0  0  0  0  0  0  0  0  0  0  0  0
   25.0210   16.3170    9.1050 H   0  0  0  0  0  0  0  0  0  0  0  0
   24.8500   11.8510    8.0940 O   0  0  0  0  0  0  0  0  0  0  0  0
   23.4360   11.7100    8.2520 C   0  0  0  0  0  0  0  0  0  0  0  0
   22.7180   13.0050    7.7980 C   0  0  0  0  0  0  0  0  0  0  0  0
   21.6740   12.9400    8.1030 H   0  0  0  0  0  0  0  0  0  0  0  0
   22.7760   13.0630    6.7110 H   0  0  0  0  0  0  0  0  0  0  0  0
   23.3110   14.3040    8.3820 C   0  0  2  0  0  0  0  0  0  0  0  0
   23.0360   15.4900    7.4390 C   0  0  0  0  0  0  0  0  0  0  0  0
   22.3290   16.4140    8.1240 N   0  0  0  0  0  0  0  0  0  0  0  0
   22.0880   15.9170    9.3720 C   0  0  0  0  0  0  0  0  0  0  0  0
   22.5740   14.7390    9.5680 N   0  0  0  0  0  0  0  0  0  0  0  0
   22.4630   14.1980   10.4140 H   0  0  0  0  0  0  0  0  0  0  0  0
   27.6390   16.5060    9.5380 C   0  0  0  0  0  0  0  0  0  0  0  0
   21.9330   17.7200    7.5940 C   0  0  0  0  0  0  0  0  0  0  0  0
   22.2760   17.8130    6.5640 H   0  0  0  0  0  0  0  0  0  0  0  0
   22.3810   18.5090    8.1990 H   0  0  0  0  0  0  0  0  0  0  0  0
   20.8470   17.8110    7.6250 H   0  0  0  0  0  0  0  0  0  0  0  0
   21.3210   16.6530   10.2630 N   0  0  0  0  0  0  0  0  0  0  0  0
   21.0940   16.2700   11.1700 H   0  0  0  0  0  0  0  0  0  0  0  0
   20.9900   17.5720   10.0050 H   0  0  0  0  0  0  0  0  0  0  0  0
   27.0450   17.4570   10.4030 C   0  0  0  0  0  0  0  0  0  0  0  0
   26.0630   17.2760   10.8140 H   0  0  0  0  0  0  0  0  0  0  0  0
   27.7420   18.6460   10.7270 N   0  0  0  0  0  0  0  0  0  0  0  0
   29.0290   18.9000   10.1880 C   0  0  0  0  0  0  0  0  0  0  0  0
   29.5540   19.8090   10.4410 H   0  0  0  0  0  0  0  0  0  0  0  0
   29.6220   17.9540    9.3150 N   0  0  0  0  0  0  0  0  0  0  0  0
   28.9240   16.7660    8.9880 C   0  0  0  0  0  0  0  0  0  0  0  0
   29.3720   16.0510    8.3140 H   0  0  0  0  0  0  0  0  0  0  0  0
   23.5150   15.6060    6.3060 O   0  0  0  0  0  0  0  0  0  0  0  0
   23.0150   10.5220    7.3590 C   0  0  0  0  0  0  0  0  0  0  0  0
   23.2670   10.7410    6.3210 H   0  0  0  0  0  0  0  0  0  0  0  0
   21.9400   10.3650    7.4470 H   0  0  0  0  0  0  0  0  0  0  0  0
   23.5410    9.6230    7.6790 H   0  0  0  0  0  0  0  0  0  0  0  0
   23.0750   11.3910    9.7230 C   0  0  0  0  0  0  0  0  0  0  0  0
   23.3700   12.2260   10.3590 H   0  0  0  0  0  0  0  0  0  0  0  0
   23.6010   10.4900   10.0390 H   0  0  0  0  0  0  0  0  0  0  0  0
   22.0000   11.2320    9.8070 H   0  0  0  0  0  0  0  0  0  0  0  0
  1  2  2  0
  1  8  1  0
  1 21  1  0
  2  3  1  0
  2  4  1  0
  4  5  1  0
  4  6  2  0
  6  7  1  0
  6 10  1  0
  7  8  2  0
  7 15  1  0
  8  9  1  0
 10 11  1  0
 11 12  1  0
 11 38  1  0
 11 42  1  0
 12 13  1  0
 12 14  1  0
 15 12  1  6
 15 16  1  0
 15 19  1  0
 16 17  1  0
 16 37  2  0
 17 18  1  0
 17 22  1  0
 18 19  2  0
 18 26  1  0
 19 20  1  0
 21 29  2  0
 21 35  1  0
 22 23  1  0
 22 24  1  0
 22 25  1  0
 26 27  1  0
 26 28  1  0
 29 30  1  0
 29 31  1  0
 31 32  2  0
 32 33  1  0
 32 34  1  0
 34 35  2  0
 35 36  1  0
 38 39  1  0
 38 40  1  0
 38 41  1  0
 42 43  1  0
 42 44  1  0
 42 45  1  0
M  CHG  1  19   1
M  END
>  <r_exp_dg>  (30) 
-9.36077

>  <experimental dG reference units>  (30) 
kcal/mol

>  <experimental dG reference field>  (30) 
r_exp_dg

>  <kJ/mol experimental dG>  (30) 
-39.16546168000001

>  <kcal/mol experimental dG>  (30) 
-9.36077

>  <AmberAM1BCCCache>  (30) 
gASVsgMAAAAAAABdlCiMFm51bXB5Ll9jb3JlLm11bHRpYXJyYXmUjAZzY2FsYXKUk5SMBW51bXB5lIwFZHR5cGWUk5SMAmY4lImIh5RSlChLA4wBPJROTk5K/////0r/////SwB0lGJDCD3Xiash5du/lIaUUpRoA2gJQwjaSjw2FVzkv5SGlFKUaANoCUMINt19jWuO/j+UhpRSlGgDaAlDCAuKQN1klvq/lIaUUpRoA2gJQwgky2A2T7EAQJSGlFKUaANoCUMIyoTw09d0AUCUhpRSlGgDaAlDCKjazlbBngXAlIaUUpRoA2gJQwinhJX7jpfwv5SGlFKUaANoCUMIW5oeOjkD9z+UhpRSlGgDaAlDCP7vMhME8AzAlIaUUpRoA2gJQwgkuYql7PP9P5SGlFKUaANoCUMIgp1TYFmv87+UhpRSlGgDaAlDCJB7ss6FEvA/lIaUUpRoA2gJQwiQe7LOhRLwP5SGlFKUaANoCUMIR96mOEEN7T+UhpRSlGgDaAlDCCO/mg+KcSBAlIaUUpRoA2gJQwjrhUjKwgQTwJSGlFKUaANoCUMIopwOrc9xFECUhpRSlGgDaAlDCIzhirb3ZxHAlIaUUpRoA2gJQwgr6z/qdcAPQJSGlFKUaANoCUMIIbBz3IhmC8CUhpRSlGgDaAlDCBhF1Q7o3eQ/lIaUUpRoA2gJQwg+ope+dQrwP5SGlFKUaANoCUMIPqKXvnUK8D+UhpRSlGgDaAlDCD6il751CvA/lIaUUpRoA2gJQwjibklswfoVwJSGlFKUaANoCUMIoPRHmeZfD0CUhpRSlGgDaAlDCKD0R5nmXw9AlIaUUpRoA2gJQwikercRgscUQJSGlFKUaANoCUMIruV/C7i00z+UhpRSlGgDaAlDCB0nZEc2/R/AlIaUUpRoA2gJQwiCUmdcaIweQJSGlFKUaANoCUMI0T9Okhw06z+UhpRSlGgDaAlDCB0nZEc2/R/AlIaUUpRoA2gJQwikercRgscUQJSGlFKUaANoCUMIruV/C7i00z+UhpRSlGgDaAlDCEYlXKcq2hXAlIaUUpRoA2gJQwjvqbKSPjv1v5SGlFKUaANoCUMIur0N+Uk56D+UhpRSlGgDaAlDCLq9DflJOeg/lIaUUpRoA2gJQwi6vQ35STnoP5SGlFKUaANoCUMI76mykj479b+UhpRSlGgDaAlDCLq9DflJOeg/lIaUUpRoA2gJQwi6vQ35STnoP5SGlFKUaANoCUMIur0N+Uk56D+UhpRSlGUu

$$$$
40
     RDKit          3D

 43 46  0  0  1  0  0  0  0  0999 V2000
   26.9470   15.3250    9.1860 C   0  0  0  0  0  0  0  0  0  0  0  0
   27.6320   14.0950    9.0140 C   0  0  0  0  0  0  0  0  0  0  0  0
   28.7000   14.0480    9.1690 H   0  0  0  0  0  0  0  0  0  0  0  0
   26.9220   12.9310    8.6410 C   0  0  0  0  0  0  0  0  0  0  0  0
   27.4460   11.9960    8.5080 H   0  0  0  0  0  0  0  0  0  0  0  0
   25.5210   12.9940    8.4420 C   0  0  0  0  0  0  0  0  0  0  0  0
   24.8260   14.2190    8.6190 C   0  0  0  0  0  0  0  0  0  0  0  0
   25.5440   15.3800    8.9820 C   0  0  0  0  0  0  0  0  0  0  0  0
   25.0210   16.3170    9.1050 H   0  0  0  0  0  0  0  0  0  0  0  0
   24.8500   11.8510    8.0940 O   0  0  0  0  0  0  0  0  0  0  0  0
   23.4360   11.7100    8.2520 C   0  0  0  0  0  0  0  0  0  0  0  0
   22.7180   13.0050    7.7980 C   0  0  0  0  0  0  0  0  0  0  0  0
   21.6740   12.9400    8.1030 H   0  0  0  0  0  0  0  0  0  0  0  0
   22.7760   13.0630    6.7110 H   0  0  0  0  0  0  0  0  0  0  0  0
   23.3110   14.3040    8.3820 C   0  0  2  0  0  0  0  0  0  0  0  0
   23.0360   15.4900    7.4390 C   0  0  0  0  0  0  0  0  0  0  0  0
   22.3290   16.4140    8.1240 N   0  0  0  0  0  0  0  0  0  0  0  0
   22.0880   15.9170    9.3720 C   0  0  0  0  0  0  0  0  0  0  0  0
   22.5740   14.7390    9.5680 N   0  0  0  0  0  0  0  0  0  0  0  0
   22.4630   14.1980   10.4140 H   0  0  0  0  0  0  0  0  0  0  0  0
   21.9330   17.7200    7.5940 C   0  0  0  0  0  0  0  0  0  0  0  0
   22.2760   17.8130    6.5640 H   0  0  0  0  0  0  0  0  0  0  0  0
   22.3810   18.5090    8.1990 H   0  0  0  0  0  0  0  0  0  0  0  0
   20.8470   17.8110    7.6250 H   0  0  0  0  0  0  0  0  0  0  0  0
   21.3210   16.6530   10.2630 N   0  0  0  0  0  0  0  0  0  0  0  0
   21.0940   16.2700   11.1700 H   0  0  0  0  0  0  0  0  0  0  0  0
   20.9900   17.5720   10.0050 H   0  0  0  0  0  0  0  0  0  0  0  0
   23.5150   15.6060    6.3060 O   0  0  0  0  0  0  0  0  0  0  0  0
   23.0150   10.5220    7.3590 C   0  0  0  0  0  0  0  0  0  0  0  0
   23.2670   10.7410    6.3210 H   0  0  0  0  0  0  0  0  0  0  0  0
   21.9400   10.3650    7.4470 H   0  0  0  0  0  0  0  0  0  0  0  0
   23.5410    9.6230    7.6790 H   0  0  0  0  0  0  0  0  0  0  0  0
   23.0750   11.3910    9.7230 C   0  0  0  0  0  0  0  0  0  0  0  0
   23.3700   12.2260   10.3590 H   0  0  0  0  0  0  0  0  0  0  0  0
   23.6010   10.4900   10.0390 H   0  0  0  0  0  0  0  0  0  0  0  0
   22.0000   11.2320    9.8070 H   0  0  0  0  0  0  0  0  0  0  0  0
   29.0690   18.2360    9.4960 C   0  0  0  0  0  0  0  0  0  0  0  0
   29.8110   18.9490    9.1690 H   0  0  0  0  0  0  0  0  0  0  0  0
   28.6000   17.1200    8.7550 C   0  0  0  0  0  0  0  0  0  0  0  0
   28.9230   16.8340    7.7650 H   0  0  0  0  0  0  0  0  0  0  0  0
   27.6310   16.4450    9.5440 C   0  0  0  0  0  0  0  0  0  0  0  0
   27.5010   17.1450   10.7730 S   0  0  0  0  0  0  0  0  0  0  0  0
   28.3900   18.2510   10.7430 N   0  0  0  0  0  0  0  0  0  0  0  0
  1  2  2  0
  1  8  1  0
  1 41  1  0
  2  3  1  0
  2  4  1  0
  4  5  1  0
  4  6  2  0
  6  7  1  0
  6 10  1  0
  7  8  2  0
  7 15  1  0
  8  9  1  0
 10 11  1  0
 11 12  1  0
 11 29  1  0
 11 33  1  0
 12 13  1  0
 12 14  1  0
 15 12  1  6
 15 16  1  0
 15 19  1  0
 16 17  1  0
 16 28  2  0
 17 18  1  0
 17 21  1  0
 18 19  2  0
 18 25  1  0
 19 20  1  0
 21 22  1  0
 21 23  1  0
 21 24  1  0
 25 26  1  0
 25 27  1  0
 29 30  1  0
 29 31  1  0
 29 32  1  0
 33 34  1  0
 33 35  1  0
 33 36  1  0
 37 38  1  0
 37 39  1  0
 37 43  2  0
 39 40  1  0
 39 41  2  0
 41 42  1  0
 42 43  1  0
M  CHG  1  19   1
M  END
>  <r_exp_dg>  (31) 
-8.64597

>  <experimental dG reference units>  (31) 
kcal/mol

>  <experimental dG reference field>  (31) 
r_exp_dg

>  <kJ/mol experimental dG>  (31) 
-36.17473848

>  <kcal/mol experimental dG>  (31) 
-8.64597

>  <AmberAM1BCCCache>  (31) 
gASVjAMAAAAAAABdlCiMFm51bXB5Ll9jb3JlLm11bHRpYXJyYXmUjAZzY2FsYXKUk5SMBW51bXB5lIwFZHR5cGWUk5SMAmY4lImIh5RSlChLA4wBPJROTk5K/////0r/////SwB0lGJDCPSVo7bPLMi/lIaUUpRoA2gJQwhSwK+7jrzhv5SGlFKUaANoCUMIlENgLzmM/j+UhpRSlGgDaAlDCPMe2uPeyPq/lIaUUpRoA2gJQwiwABQzEpgAQJSGlFKUaANoCUMInLUfeeKLAUCUhpRSlGgDaAlDCNepn7G2hwXAlIaUUpRoA2gJQwhgC6P731rxv5SGlFKUaANoCUMIQ/f4LJZh9z+UhpRSlGgDaAlDCM68QUId8QzAlIaUUpRoA2gJQwiCH21HuvH9P5SGlFKUaANoCUMI3zv1FUSB87+UhpRSlGgDaAlDCJDf0kR3KPA/lIaUUpRoA2gJQwiQ39JEdyjwP5SGlFKUaANoCUMIdrRzK02o7D+UhpRSlGgDaAlDCFeL5rhMdyBAlIaUUpRoA2gJQwhT7M9hTwUTwJSGlFKUaANoCUMIaTdoKzFlFECUhpRSlGgDaAlDCIFLtY9ORBHAlIaUUpRoA2gJQwi4IPPmOKcPQJSGlFKUaANoCUMI0hGaUoPZ5D+UhpRSlGgDaAlDCJXIrThf8O8/lIaUUpRoA2gJQwiVyK04X/DvP5SGlFKUaANoCUMIlcitOF/w7z+UhpRSlGgDaAlDCKfXki8q4xXAlIaUUpRoA2gJQwjPJzlqzV4PQJSGlFKUaANoCUMIzyc5as1eD0CUhpRSlGgDaAlDCICKAinJ5hXAlIaUUpRoA2gJQwiSQ9DwcD31v5SGlFKUaANoCUMIc4rSPOU06D+UhpRSlGgDaAlDCHOK0jzlNOg/lIaUUpRoA2gJQwhzitI85TToP5SGlFKUaANoCUMIkkPQ8HA99b+UhpRSlGgDaAlDCHOK0jzlNOg/lIaUUpRoA2gJQwhzitI85TToP5SGlFKUaANoCUMIc4rSPOU06D+UhpRSlGgDaAlDCAnxri93ExFAlIaUUpRoA2gJQwjpKCvjCQ7qP5SGlFKUaANoCUMIpYG9yRciB8CUhpRSlGgDaAlDCFP+UQc2sABAlIaUUpRoA2gJQwh2neaCQCvlv5SGlFKUaANoCUMIY6CDMVzj/D+UhpRSlGgDaAlDCEfd0b0lrxbAlIaUUpRlLg==

$$$$
41
     RDKit          3D

 51 54  0  0  1  0  0  0  0  0999 V2000
   26.9470   15.3250    9.1860 C   0  0  0  0  0  0  0  0  0  0  0  0
   27.6320   14.0950    9.0140 C   0  0  0  0  0  0  0  0  0  0  0  0
   28.7000   14.0480    9.1690 H   0  0  0  0  0  0  0  0  0  0  0  0
   26.9220   12.9310    8.6410 C   0  0  0  0  0  0  0  0  0  0  0  0
   27.4460   11.9960    8.5080 H   0  0  0  0  0  0  0  0  0  0  0  0
   25.5210   12.9940    8.4420 C   0  0  0  0  0  0  0  0  0  0  0  0
   24.8260   14.2190    8.6190 C   0  0  0  0  0  0  0  0  0  0  0  0
   25.5440   15.3800    8.9820 C   0  0  0  0  0  0  0  0  0  0  0  0
   25.0210   16.3170    9.1050 H   0  0  0  0  0  0  0  0  0  0  0  0
   24.8500   11.8510    8.0940 O   0  0  0  0  0  0  0  0  0  0  0  0
   23.4360   11.7100    8.2520 C   0  0  0  0  0  0  0  0  0  0  0  0
   22.7180   13.0050    7.7980 C   0  0  0  0  0  0  0  0  0  0  0  0
   21.6740   12.9400    8.1030 H   0  0  0  0  0  0  0  0  0  0  0  0
   22.7760   13.0630    6.7110 H   0  0  0  0  0  0  0  0  0  0  0  0
   23.3110   14.3040    8.3820 C   0  0  2  0  0  0  0  0  0  0  0  0
   23.0360   15.4900    7.4390 C   0  0  0  0  0  0  0  0  0  0  0  0
   22.3290   16.4140    8.1240 N   0  0  0  0  0  0  0  0  0  0  0  0
   22.0880   15.9170    9.3720 C   0  0  0  0  0  0  0  0  0  0  0  0
   22.5740   14.7390    9.5680 N   0  0  0  0  0  0  0  0  0  0  0  0
   22.4630   14.1980   10.4140 H   0  0  0  0  0  0  0  0  0  0  0  0
   21.9330   17.7200    7.5940 C   0  0  0  0  0  0  0  0  0  0  0  0
   22.2760   17.8130    6.5640 H   0  0  0  0  0  0  0  0  0  0  0  0
   22.3810   18.5090    8.1990 H   0  0  0  0  0  0  0  0  0  0  0  0
   20.8470   17.8110    7.6250 H   0  0  0  0  0  0  0  0  0  0  0  0
   21.3210   16.6530   10.2630 N   0  0  0  0  0  0  0  0  0  0  0  0
   21.0940   16.2700   11.1700 H   0  0  0  0  0  0  0  0  0  0  0  0
   20.9900   17.5720   10.0050 H   0  0  0  0  0  0  0  0  0  0  0  0
   23.5150   15.6060    6.3060 O   0  0  0  0  0  0  0  0  0  0  0  0
   23.0150   10.5220    7.3590 C   0  0  0  0  0  0  0  0  0  0  0  0
   23.2670   10.7410    6.3210 H   0  0  0  0  0  0  0  0  0  0  0  0
   21.9400   10.3650    7.4470 H   0  0  0  0  0  0  0  0  0  0  0  0
   23.5410    9.6230    7.6790 H   0  0  0  0  0  0  0  0  0  0  0  0
   23.0750   11.3910    9.7230 C   0  0  0  0  0  0  0  0  0  0  0  0
   23.3700   12.2260   10.3590 H   0  0  0  0  0  0  0  0  0  0  0  0
   23.6010   10.4900   10.0390 H   0  0  0  0  0  0  0  0  0  0  0  0
   22.0000   11.2320    9.8070 H   0  0  0  0  0  0  0  0  0  0  0  0
   28.9780   16.3620    9.7230 C   0  0  0  0  0  0  0  0  0  0  0  0
   29.6260   15.3360    9.5810 O   0  0  0  0  0  0  0  0  0  0  0  0
   27.6310   16.4450    9.5440 N   0  0  0  0  0  0  0  0  0  0  0  0
   27.1160   17.3070    9.6680 H   0  0  0  0  0  0  0  0  0  0  0  0
   31.0700   19.1820   10.5810 C   0  0  0  0  0  0  0  0  0  0  0  0
   32.0060   19.6950   10.7500 H   0  0  0  0  0  0  0  0  0  0  0  0
   30.9210   17.8270   10.1880 C   0  0  0  0  0  0  0  0  0  0  0  0
   31.7230   17.1270   10.0040 H   0  0  0  0  0  0  0  0  0  0  0  0
   29.5320   17.5520   10.0780 C   0  0  0  0  0  0  0  0  0  0  0  0
   28.8230   18.7390   10.4030 O   0  0  0  0  0  0  0  0  0  0  0  0
   29.7740   19.7460   10.7140 C   0  0  0  0  0  0  0  0  0  0  0  0
   29.4780   21.0900   11.0950 C   0  0  0  0  0  0  0  0  0  0  0  0
   30.4080   21.6310   11.2710 H   0  0  0  0  0  0  0  0  0  0  0  0
   28.8810   21.0870   12.0070 H   0  0  0  0  0  0  0  0  0  0  0  0
   28.9200   21.5790   10.2970 H   0  0  0  0  0  0  0  0  0  0  0  0
  1  2  2  0
  1  8  1  0
  1 39  1  0
  2  3  1  0
  2  4  1  0
  4  5  1  0
  4  6  2  0
  6  7  1  0
  6 10  1  0
  7  8  2  0
  7 15  1  0
  8  9  1  0
 10 11  1  0
 11 12  1  0
 11 29  1  0
 11 33  1  0
 12 13  1  0
 12 14  1  0
 15 12  1  6
 15 16  1  0
 15 19  1  0
 16 17  1  0
 16 28  2  0
 17 18  1  0
 17 21  1  0
 18 19  2  0
 18 25  1  0
 19 20  1  0
 21 22  1  0
 21 23  1  0
 21 24  1  0
 25 26  1  0
 25 27  1  0
 29 30  1  0
 29 31  1  0
 29 32  1  0
 33 34  1  0
 33 35  1  0
 33 36  1  0
 37 38  2  0
 37 39  1  0
 37 45  1  0
 39 40  1  0
 41 42  1  0
 41 43  1  0
 41 47  2  0
 43 44  1  0
 43 45  2  0
 45 46  1  0
 46 47  1  0
 47 48  1  0
 48 49  1  0
 48 50  1  0
 48 51  1  0
M  CHG  1  19   1
M  END
>  <r_exp_dg>  (32) 
-9.10997

>  <experimental dG reference units>  (32) 
kcal/mol

>  <experimental dG reference field>  (32) 
r_exp_dg

>  <kJ/mol experimental dG>  (32) 
-38.11611448000001

>  <kcal/mol experimental dG>  (32) 
-9.10997

>  <AmberAM1BCCCache>  (32) 
gASVJAQAAAAAAABdlCiMFm51bXB5Ll9jb3JlLm11bHRpYXJyYXmUjAZzY2FsYXKUk5SMBW51bXB5lIwFZHR5cGWUk5SMAmY4lImIh5RSlChLA4wBPJROTk5K/////0r/////SwB0lGJDCP39zSjkju8/lIaUUpRoA2gJQwgsOzt/d6jyv5SGlFKUaANoCUMIr61VK8ZMAkCUhpRSlGgDaAlDCIgjp8ndmfO/lIaUUpRoA2gJQwhW3z/C1VEAQJSGlFKUaANoCUMI+bBkcBDk8j+UhpRSlGgDaAlDCCJG3AWs5gDAlIaUUpRoA2gJQwh5U/a+Lub7v5SGlFKUaANoCUMIXt2DK5+U+T+UhpRSlGgDaAlDCLOgYUH9qg/AlIaUUpRoA2gJQwjL3MRlQWX9P5SGlFKUaANoCUMIgJGtVZ5M87+UhpRSlGgDaAlDCAZ3Cqc7HvE/lIaUUpRoA2gJQwgGdwqnOx7xP5SGlFKUaANoCUMI+6mLSxSo5j+UhpRSlGgDaAlDCID8WyQgqCBAlIaUUpRoA2gJQwjT+1iEfzQTwJSGlFKUaANoCUMIdB7XWZCWFECUhpRSlGgDaAlDCDBpyrin4hDAlIaUUpRoA2gJQwjEbP/cnHEQQJSGlFKUaANoCUMIqVMZde0D5j+UhpRSlGgDaAlDCLM5Vcb8N+8/lIaUUpRoA2gJQwizOVXG/DfvP5SGlFKUaANoCUMIszlVxvw37z+UhpRSlGgDaAlDCFXo/GdIBhbAlIaUUpRoA2gJQwi6AeGh2EgPQJSGlFKUaANoCUMIugHhodhID0CUhpRSlGgDaAlDCOeSRchkXhbAlIaUUpRoA2gJQwjXsBzmZBf0v5SGlFKUaANoCUMIrBwWL40q5j+UhpRSlGgDaAlDCKwcFi+NKuY/lIaUUpRoA2gJQwisHBYvjSrmP5SGlFKUaANoCUMI17Ac5mQX9L+UhpRSlGgDaAlDCKwcFi+NKuY/lIaUUpRoA2gJQwisHBYvjSrmP5SGlFKUaANoCUMIrBwWL40q5j+UhpRSlGgDaAlDCJZPB2XP1hxAlIaUUpRoA2gJQwjvnzlS4u4ZwJSGlFKUaANoCUMIgfHeNw6uFsCUhpRSlGgDaAlDCCV579wJmw5AlIaUUpRoA2gJQwjkTUkTXs0KwJSGlFKUaANoCUMIm9q7ah2CAECUhpRSlGgDaAlDCJU1jtOmjwHAlIaUUpRoA2gJQwjeALhNwP/9P5SGlFKUaANoCUMIr13bT+NW/D+UhpRSlGgDaAlDCOAM8l83ZQ3AlIaUUpRoA2gJQwgQmaorJlUNQJSGlFKUaANoCUMIQbNwRMYp/L+UhpRSlGgDaAlDCDFGV2XLsus/lIaUUpRoA2gJQwgxRldly7LrP5SGlFKUaANoCUMIMUZXZcuy6z+UhpRSlGUu

$$$$
