2_3E63
     RDKit          3D

 27 29  0  0  1  0  0  0  0  0999 V2000
   33.5725   40.8082   36.3588 C   0  0  0  0  0  0  0  0  0  0  0  0
   32.9022   39.7525   37.0165 C   0  0  0  0  0  0  0  0  0  0  0  0
   33.3729   42.2068   36.1316 C   0  0  0  0  0  0  0  0  0  0  0  0
   32.2915   42.9552   36.5889 N   0  0  0  0  0  0  0  0  0  0  0  0
   33.4255   38.4376   37.0314 C   0  0  0  0  0  0  0  0  0  0  0  0
   34.6492   38.1828   36.3679 C   0  0  0  0  0  0  0  0  0  0  0  0
   35.3410   39.2138   35.7023 C   0  0  0  0  0  0  0  0  0  0  0  0
   34.7974   40.5093   35.7056 C   0  0  0  0  0  0  0  0  0  0  0  0
   35.1925   41.7259   35.1722 N   0  0  0  0  0  0  0  0  0  0  0  0
   34.3336   42.7469   35.4297 N   0  0  0  0  0  0  0  0  0  0  0  0
   32.7071   37.3547   37.7287 C   0  0  0  0  0  0  0  0  0  0  0  0
   32.5842   36.0725   37.1468 C   0  0  0  0  0  0  0  0  0  0  0  0
   31.8965   35.0386   37.8120 C   0  0  0  0  0  0  0  0  0  0  0  0
   31.3205   35.2742   39.0738 C   0  0  0  0  0  0  0  0  0  0  0  0
   31.4350   36.5450   39.6665 C   0  0  0  0  0  0  0  0  0  0  0  0
   32.1231   37.5755   38.9966 C   0  0  0  0  0  0  0  0  0  0  0  0
   31.9663   39.9688   37.5066 H   0  0  0  0  0  0  0  0  0  0  0  0
   32.2192   43.9333   36.3542 H   0  0  0  0  0  0  0  0  0  0  0  0
   31.5280   42.5361   37.0951 H   0  0  0  0  0  0  0  0  0  0  0  0
   35.0669   37.1859   36.3793 H   0  0  0  0  0  0  0  0  0  0  0  0
   36.2752   39.0086   35.2026 H   0  0  0  0  0  0  0  0  0  0  0  0
   36.0301   41.8933   34.6355 H   0  0  0  0  0  0  0  0  0  0  0  0
   33.0108   35.8790   36.1735 H   0  0  0  0  0  0  0  0  0  0  0  0
   31.8087   34.0654   37.3512 H   0  0  0  0  0  0  0  0  0  0  0  0
   30.7925   34.4825   39.5857 H   0  0  0  0  0  0  0  0  0  0  0  0
   30.9972   36.7306   40.6365 H   0  0  0  0  0  0  0  0  0  0  0  0
   32.2115   38.5429   39.4689 H   0  0  0  0  0  0  0  0  0  0  0  0
  1  2  2  0
  1  3  1  0
  1  8  1  0
  2  5  1  0
  2 17  1  0
  3  4  1  0
  3 10  2  0
  4 18  1  0
  4 19  1  0
  5  6  2  0
  5 11  1  0
  6  7  1  0
  6 20  1  0
  7  8  2  0
  7 21  1  0
  8  9  1  0
  9 10  1  0
  9 22  1  0
 11 12  2  0
 11 16  1  0
 12 13  1  0
 12 23  1  0
 13 14  2  0
 13 24  1  0
 14 15  1  0
 14 25  1  0
 15 16  2  0
 15 26  1  0
 16 27  1  0
M  END
>  <r_exp_dg>  (1) 
-7.90701

>  <experimental dG reference units>  (1) 
kcal/mol

>  <experimental dG reference field>  (1) 
r_exp_dg

>  <kJ/mol experimental dG>  (1) 
-33.08292984

>  <kcal/mol experimental dG>  (1) 
-7.90701

>  <AmberAM1BCCCache>  (1) 
gASVXAIAAAAAAABdlCiMFm51bXB5Ll9jb3JlLm11bHRpYXJyYXmUjAZzY2FsYXKUk5SMBW51bXB5lIwFZHR5cGWUk5SMAmY4lImIh5RSlChLA4wBPJROTk5K/////0r/////SwB0lGJDCPx0/cpJMwXAlIaUUpRoA2gJQwikhvtvR3Tiv5SGlFKUaANoCUMIyQYOfnqYGUCUhpRSlGgDaAlDCEf5nUkNAiTAlIaUUpRoA2gJQwgLwFIUCWDqv5SGlFKUaANoCUMIpTvigd+n77+UhpRSlGgDaAlDCI8LCO0rxPq/lIaUUpRoA2gJQwg82OnutUjjv5SGlFKUaANoCUMIG6wZvlILtT+UhpRSlGgDaAlDCJPXT6+Z0RvAlIaUUpRoA2gJQwj9KOhiw5fZv5SGlFKUaANoCUMIgGwa727m9r+UhpRSlGgDaAlDCAlJvF6IUPi/lIaUUpRoA2gJQwjDTUC2QCD4v5SGlFKUaANoCUMICUm8XohQ+L+UhpRSlGgDaAlDCIBsGu9u5va/lIaUUpRoA2gJQwhDugZUC5v6P5SGlFKUaANoCUMIJjUyGSikEkCUhpRSlGgDaAlDCCY1MhkopBJAlIaUUpRoA2gJQwhzyJJaNAr6P5SGlFKUaANoCUMIiLWC/FLL+j+UhpRSlGgDaAlDCFiLbmTVywtAlIaUUpRoA2gJQwgA2eCMOWH5P5SGlFKUaANoCUMI0uSqZ4bo+D+UhpRSlGgDaAlDCNLkqmeG6Pg/lIaUUpRoA2gJQwjS5Kpnhuj4P5SGlFKUaANoCUMIANngjDlh+T+UhpRSlGUu

$$$$
9
     RDKit          3D

 27 29  0  0  1  0  0  0  0  0999 V2000
   33.5725   40.8082   36.3588 C   0  0  0  0  0  0  0  0  0  0  0  0
   32.9022   39.7525   37.0165 C   0  0  0  0  0  0  0  0  0  0  0  0
   33.3729   42.2068   36.1316 C   0  0  0  0  0  0  0  0  0  0  0  0
   32.2915   42.9552   36.5889 N   0  0  0  0  0  0  0  0  0  0  0  0
   33.4255   38.4376   37.0314 C   0  0  0  0  0  0  0  0  0  0  0  0
   34.6492   38.1828   36.3679 C   0  0  0  0  0  0  0  0  0  0  0  0
   35.3410   39.2138   35.7023 C   0  0  0  0  0  0  0  0  0  0  0  0
   34.7974   40.5093   35.7056 C   0  0  0  0  0  0  0  0  0  0  0  0
   35.1925   41.7259   35.1722 N   0  0  0  0  0  0  0  0  0  0  0  0
   34.3336   42.7469   35.4297 N   0  0  0  0  0  0  0  0  0  0  0  0
   32.7071   37.3547   37.7287 C   0  0  0  0  0  0  0  0  0  0  0  0
   32.1231   37.5755   38.9966 C   0  0  0  0  0  0  0  0  0  0  0  0
   31.4350   36.5450   39.6665 C   0  0  0  0  0  0  0  0  0  0  0  0
   31.3205   35.2742   39.0738 C   0  0  0  0  0  0  0  0  0  0  0  0
   31.8965   35.0386   37.8120 C   0  0  0  0  0  0  0  0  0  0  0  0
   32.5842   36.0725   37.1468 C   0  0  0  0  0  0  0  0  0  0  0  0
   31.7269   33.4697   37.1333 Cl  0  0  0  0  0  0  0  0  0  0  0  0
   31.9315   39.9865   37.4238 H   0  0  0  0  0  0  0  0  0  0  0  0
   32.2192   43.9333   36.3542 H   0  0  0  0  0  0  0  0  0  0  0  0
   31.5280   42.5361   37.0951 H   0  0  0  0  0  0  0  0  0  0  0  0
   35.0810   37.1916   36.3671 H   0  0  0  0  0  0  0  0  0  0  0  0
   36.2476   38.9923   35.1575 H   0  0  0  0  0  0  0  0  0  0  0  0
   36.0349   41.9001   34.6355 H   0  0  0  0  0  0  0  0  0  0  0  0
   32.1850   38.5360   39.4838 H   0  0  0  0  0  0  0  0  0  0  0  0
   31.0033   36.7356   40.6364 H   0  0  0  0  0  0  0  0  0  0  0  0
   30.7947   34.4796   39.5832 H   0  0  0  0  0  0  0  0  0  0  0  0
   33.0164   35.8627   36.1794 H   0  0  0  0  0  0  0  0  0  0  0  0
  1  2  2  0
  1  3  1  0
  1  8  1  0
  2  5  1  0
  2 18  1  0
  3  4  1  0
  3 10  2  0
  4 19  1  0
  4 20  1  0
  5  6  2  0
  5 11  1  0
  6  7  1  0
  6 21  1  0
  7  8  2  0
  7 22  1  0
  8  9  1  0
  9 10  1  0
  9 23  1  0
 11 12  2  0
 11 16  1  0
 12 13  1  0
 12 24  1  0
 13 14  2  0
 13 25  1  0
 14 15  1  0
 14 26  1  0
 15 16  2  0
 15 17  1  0
 16 27  1  0
M  END
>  <r_exp_dg>  (2) 
-8.36388

>  <experimental dG reference units>  (2) 
kcal/mol

>  <experimental dG reference field>  (2) 
r_exp_dg

>  <kJ/mol experimental dG>  (2) 
-34.994473920000004

>  <kcal/mol experimental dG>  (2) 
-8.36388

>  <AmberAM1BCCCache>  (2) 
gASVXAIAAAAAAABdlCiMFm51bXB5Ll9jb3JlLm11bHRpYXJyYXmUjAZzY2FsYXKUk5SMBW51bXB5lIwFZHR5cGWUk5SMAmY4lImIh5RSlChLA4wBPJROTk5K/////0r/////SwB0lGJDCP5vRxlAZgXAlIaUUpRoA2gJQwhqq1PDxPzgv5SGlFKUaANoCUMIuwVGFTWjGUCUhpRSlGgDaAlDCDd5EfO4AiTAlIaUUpRoA2gJQwg+hlqRH67sv5SGlFKUaANoCUMIgU0qd3vx7r+UhpRSlGgDaAlDCAkLpDiJyfq/lIaUUpRoA2gJQwgC/UFCM9Hhv5SGlFKUaANoCUMIKwCafAOxsT+UhpRSlGgDaAlDCM/Z+C3NuhvAlIaUUpRoA2gJQwhdX3JsFzvOv5SGlFKUaANoCUMI4WRwtzc097+UhpRSlGgDaAlDCBFz/L1go/a/lIaUUpRoA2gJQwgnYOxff2T3v5SGlFKUaANoCUMIaAGb0rw2zT+UhpRSlGgDaAlDCIZ8BG3RQva/lIaUUpRoA2gJQwjKTd8msf/xv5SGlFKUaANoCUMIybpqCK6V+j+UhpRSlGgDaAlDCBk0arDirhJAlIaUUpRoA2gJQwgZNGqw4q4SQJSGlFKUaANoCUMIhb/uX2Zl+j+UhpRSlGgDaAlDCJms3gGFJvs/lIaUUpRoA2gJQwiDhFo7khEMQJSGlFKUaANoCUMItM16Zo/U+T+UhpRSlGgDaAlDCPrI9g7XBPo/lIaUUpRoA2gJQwiwmc6jo+f7P5SGlFKUaANoCUMIO5DG9DJI/D+UhpRSlGUu

$$$$
8
     RDKit          3D

 27 29  0  0  1  0  0  0  0  0999 V2000
   33.5725   40.8082   36.3588 C   0  0  0  0  0  0  0  0  0  0  0  0
   32.9022   39.7525   37.0165 C   0  0  0  0  0  0  0  0  0  0  0  0
   33.3729   42.2068   36.1316 C   0  0  0  0  0  0  0  0  0  0  0  0
   32.2915   42.9552   36.5889 N   0  0  0  0  0  0  0  0  0  0  0  0
   33.4255   38.4376   37.0314 C   0  0  0  0  0  0  0  0  0  0  0  0
   34.6492   38.1828   36.3679 C   0  0  0  0  0  0  0  0  0  0  0  0
   35.3410   39.2138   35.7023 C   0  0  0  0  0  0  0  0  0  0  0  0
   34.7974   40.5093   35.7056 C   0  0  0  0  0  0  0  0  0  0  0  0
   35.1925   41.7259   35.1722 N   0  0  0  0  0  0  0  0  0  0  0  0
   34.3336   42.7469   35.4297 N   0  0  0  0  0  0  0  0  0  0  0  0
   32.7071   37.3547   37.7287 C   0  0  0  0  0  0  0  0  0  0  0  0
   32.5842   36.0725   37.1468 C   0  0  0  0  0  0  0  0  0  0  0  0
   31.8965   35.0386   37.8120 C   0  0  0  0  0  0  0  0  0  0  0  0
   31.3205   35.2742   39.0738 C   0  0  0  0  0  0  0  0  0  0  0  0
   31.4350   36.5450   39.6665 C   0  0  0  0  0  0  0  0  0  0  0  0
   32.1231   37.5755   38.9966 C   0  0  0  0  0  0  0  0  0  0  0  0
   32.3106   39.0432   39.8996 Cl  0  0  0  0  0  0  0  0  0  0  0  0
   31.9556   39.9798   37.4796 H   0  0  0  0  0  0  0  0  0  0  0  0
   32.2192   43.9333   36.3542 H   0  0  0  0  0  0  0  0  0  0  0  0
   31.5280   42.5361   37.0951 H   0  0  0  0  0  0  0  0  0  0  0  0
   35.0689   37.1868   36.3786 H   0  0  0  0  0  0  0  0  0  0  0  0
   36.2756   39.0096   35.2029 H   0  0  0  0  0  0  0  0  0  0  0  0
   36.0296   41.8936   34.6349 H   0  0  0  0  0  0  0  0  0  0  0  0
   33.0114   35.8796   36.1737 H   0  0  0  0  0  0  0  0  0  0  0  0
   31.8097   34.0646   37.3516 H   0  0  0  0  0  0  0  0  0  0  0  0
   30.7961   34.4818   39.5884 H   0  0  0  0  0  0  0  0  0  0  0  0
   31.0129   36.7257   40.6442 H   0  0  0  0  0  0  0  0  0  0  0  0
  1  2  2  0
  1  3  1  0
  1  8  1  0
  2  5  1  0
  2 18  1  0
  3  4  1  0
  3 10  2  0
  4 19  1  0
  4 20  1  0
  5  6  2  0
  5 11  1  0
  6  7  1  0
  6 21  1  0
  7  8  2  0
  7 22  1  0
  8  9  1  0
  9 10  1  0
  9 23  1  0
 11 12  2  0
 11 16  1  0
 12 13  1  0
 12 24  1  0
 13 14  2  0
 13 25  1  0
 14 15  1  0
 14 26  1  0
 15 16  2  0
 15 27  1  0
 16 17  1  0
M  END
>  <r_exp_dg>  (3) 
-8.77456

>  <experimental dG reference units>  (3) 
kcal/mol

>  <experimental dG reference field>  (3) 
r_exp_dg

>  <kJ/mol experimental dG>  (3) 
-36.71275904

>  <kcal/mol experimental dG>  (3) 
-8.77456

>  <AmberAM1BCCCache>  (3) 
gASVXAIAAAAAAABdlCiMFm51bXB5Ll9jb3JlLm11bHRpYXJyYXmUjAZzY2FsYXKUk5SMBW51bXB5lIwFZHR5cGWUk5SMAmY4lImIh5RSlChLA4wBPJROTk5K/////0r/////SwB0lGJDCFG33E5N9QXAlIaUUpRoA2gJQwh3YQI+oiXev5SGlFKUaANoCUMI+lo19xmkGUCUhpRSlGgDaAlDCGnNOGxYDiTAlIaUUpRoA2gJQwj+rLcWxYnuv5SGlFKUaANoCUMIex4YSw0D6r+UhpRSlGgDaAlDCGqeUvtbt/u/lIaUUpRoA2gJQwinBN87f87fv5SGlFKUaANoCUMIwWVgwpi5oT+UhpRSlGgDaAlDCJCECUzouRvAlIaUUpRoA2gJQwgtffPA1tTSv5SGlFKUaANoCUMIADFPlK7e9b+UhpRSlGgDaAlDCM3uFsuZgvi/lIaUUpRoA2gJQwhbGbveFND2v5SGlFKUaANoCUMItwEnKXvB97+UhpRSlGgDaAlDCFM9wpehstQ/lIaUUpRoA2gJQwiiHkJb4Hnwv5SGlFKUaANoCUMIxA8okEGZ+j+UhpRSlGgDaAlDCFiJWZLHrxJAlIaUUpRoA2gJQwhYiVmSx68SQJSGlFKUaANoCUMITwYg4dD5+j+UhpRSlGgDaAlDCE8GIOHQ+fo/lIaUUpRoA2gJQwjqJ/N7x1sMQJSGlFKUaANoCUMIOhkwP7I4+j+UhpRSlGgDaAlDCGknvEXbp/k/lIaUUpRoA2gJQwj1HbSWagj6P5SGlFKUaANoCUMIqu6LKzfr+z+UhpRSlGUu

$$$$
5
     RDKit          3D

 26 28  0  0  1  0  0  0  0  0999 V2000
   33.5735   40.8047   36.3833 C   0  0  0  0  0  0  0  0  0  0  0  0
   32.8988   39.7611   37.0564 C   0  0  0  0  0  0  0  0  0  0  0  0
   33.3859   42.2145   36.1903 C   0  0  0  0  0  0  0  0  0  0  0  0
   32.3265   42.9962   36.7127 N   0  0  0  0  0  0  0  0  0  0  0  0
   33.4077   38.4415   37.0141 C   0  0  0  0  0  0  0  0  0  0  0  0
   34.6076   38.1659   36.3064 C   0  0  0  0  0  0  0  0  0  0  0  0
   35.2913   39.1877   35.6167 C   0  0  0  0  0  0  0  0  0  0  0  0
   34.7674   40.4907   35.6657 C   0  0  0  0  0  0  0  0  0  0  0  0
   35.1587   41.7109   35.1232 N   0  0  0  0  0  0  0  0  0  0  0  0
   34.3274   42.7354   35.4535 N   0  0  0  0  0  0  0  0  0  0  0  0
   32.7043   37.3561   37.7171 C   0  0  0  0  0  0  0  0  0  0  0  0
   31.9557   37.6152   38.8966 C   0  0  0  0  0  0  0  0  0  0  0  0
   31.2977   36.5432   39.5406 C   0  0  0  0  0  0  0  0  0  0  0  0
   31.3692   35.2658   39.0927 N   0  0  0  0  0  0  0  0  0  0  0  0
   32.0675   35.0232   37.9518 C   0  0  0  0  0  0  0  0  0  0  0  0
   32.7442   36.0277   37.2284 C   0  0  0  0  0  0  0  0  0  0  0  0
   31.9783   39.9866   37.5696 H   0  0  0  0  0  0  0  0  0  0  0  0
   31.5252   42.5130   37.1215 H   0  0  0  0  0  0  0  0  0  0  0  0
   32.1417   43.9194   36.3131 H   0  0  0  0  0  0  0  0  0  0  0  0
   35.0174   37.1670   36.2779 H   0  0  0  0  0  0  0  0  0  0  0  0
   36.1996   38.9735   35.0691 H   0  0  0  0  0  0  0  0  0  0  0  0
   35.9936   41.8918   34.5697 H   0  0  0  0  0  0  0  0  0  0  0  0
   31.8846   38.6028   39.3240 H   0  0  0  0  0  0  0  0  0  0  0  0
   30.7328   36.7134   40.4464 H   0  0  0  0  0  0  0  0  0  0  0  0
   32.0869   33.9895   37.6122 H   0  0  0  0  0  0  0  0  0  0  0  0
   33.2818   35.7674   36.3256 H   0  0  0  0  0  0  0  0  0  0  0  0
  1  2  2  0
  1  3  1  0
  1  8  1  0
  2  5  1  0
  2 17  1  0
  3  4  1  0
  3 10  2  0
  4 18  1  0
  4 19  1  0
  5  6  2  0
  5 11  1  0
  6  7  1  0
  6 20  1  0
  7  8  2  0
  7 21  1  0
  8  9  1  0
  9 10  1  0
  9 22  1  0
 11 12  2  0
 11 16  1  0
 12 13  1  0
 12 23  1  0
 13 14  2  0
 13 24  1  0
 14 15  1  0
 15 16  2  0
 15 25  1  0
 16 26  1  0
M  END
>  <r_exp_dg>  (4) 
-7.7898

>  <experimental dG reference units>  (4) 
kcal/mol

>  <experimental dG reference field>  (4) 
r_exp_dg

>  <kJ/mol experimental dG>  (4) 
-32.5925232

>  <kcal/mol experimental dG>  (4) 
-7.7898000000000005

>  <AmberAM1BCCCache>  (4) 
gASVSQIAAAAAAABdlCiMFm51bXB5Ll9jb3JlLm11bHRpYXJyYXmUjAZzY2FsYXKUk5SMBW51bXB5lIwFZHR5cGWUk5SMAmY4lImIh5RSlChLA4wBPJROTk5K/////0r/////SwB0lGJDCBMqoyHskQXAlIaUUpRoA2gJQwjiq/VbEw/ev5SGlFKUaANoCUMIVCZW5YKlGUCUhpRSlGgDaAlDCOtoCQuSASTAlIaUUpRoA2gJQwgwlsh0XQDwv5SGlFKUaANoCUMIkm7Jss9c7b+UhpRSlGgDaAlDCDR/W0nhIPu/lIaUUpRoA2gJQwgUHuF9hzzgv5SGlFKUaANoCUMIyuPE8fl/rj+UhpRSlGgDaAlDCGW6yXNtrBvAlIaUUpRoA2gJQwimiZoToaO+P5SGlFKUaANoCUMIxz4p7VPJBsCUhpRSlGgDaAlDCC/we6PgnRJAlIaUUpRoA2gJQwgYeUzhm0wfwJSGlFKUaANoCUMIL/B7o+CdEkCUhpRSlGgDaAlDCMc+Ke1TyQbAlIaUUpRoA2gJQwhvOCfxLM/6P5SGlFKUaANoCUMIGtSJdTm3EkCUhpRSlGgDaAlDCBrUiXU5txJAlIaUUpRoA2gJQwifRrP3VT76P5SGlFKUaANoCUMI+i4fQrwv+z+UhpRSlGgDaAlDCPrA9oN1RgxAlIaUUpRoA2gJQwj6Lh9CvC/7P5SGlFKUaANoCUMI8yMkuafJ0D+UhpRSlGgDaAlDCPMjJLmnydA/lIaUUpRoA2gJQwj6Lh9CvC/7P5SGlFKUZS4=

$$$$
10
     RDKit          3D

 26 28  0  0  1  0  0  0  0  0999 V2000
   33.6066   40.7909   36.4117 C   0  0  0  0  0  0  0  0  0  0  0  0
   32.9695   39.7466   37.1106 C   0  0  0  0  0  0  0  0  0  0  0  0
   33.3728   42.1778   36.1654 C   0  0  0  0  0  0  0  0  0  0  0  0
   32.2829   42.9075   36.6342 N   0  0  0  0  0  0  0  0  0  0  0  0
   33.4445   38.4212   37.0503 C   0  0  0  0  0  0  0  0  0  0  0  0
   34.6331   38.1405   36.3208 C   0  0  0  0  0  0  0  0  0  0  0  0
   35.3318   39.1781   35.6609 C   0  0  0  0  0  0  0  0  0  0  0  0
   34.8027   40.4818   35.7043 C   0  0  0  0  0  0  0  0  0  0  0  0
   35.1607   41.6994   35.1366 N   0  0  0  0  0  0  0  0  0  0  0  0
   34.3067   42.7188   35.4276 N   0  0  0  0  0  0  0  0  0  0  0  0
   32.7041   37.3880   37.7971 C   0  0  0  0  0  0  0  0  0  0  0  0
   32.2342   37.6240   39.1202 C   0  0  0  0  0  0  0  0  0  0  0  0
   31.4921   36.6040   39.7524 C   0  0  0  0  0  0  0  0  0  0  0  0
   31.2604   35.3881   39.0730 C   0  0  0  0  0  0  0  0  0  0  0  0
   31.7118   35.2886   37.7382 C   0  0  0  0  0  0  0  0  0  0  0  0
   32.4491   36.2457   37.1241 N   0  0  0  0  0  0  0  0  0  0  0  0
   31.1180   34.0410   36.7364 Cl  0  0  0  0  0  0  0  0  0  0  0  0
   32.0660   39.9709   37.6545 H   0  0  0  0  0  0  0  0  0  0  0  0
   31.4657   42.4212   37.0248 H   0  0  0  0  0  0  0  0  0  0  0  0
   32.0956   43.8290   36.2468 H   0  0  0  0  0  0  0  0  0  0  0  0
   35.0017   37.1320   36.2769 H   0  0  0  0  0  0  0  0  0  0  0  0
   36.2353   38.9602   35.1072 H   0  0  0  0  0  0  0  0  0  0  0  0
   35.9944   41.8765   34.5824 H   0  0  0  0  0  0  0  0  0  0  0  0
   32.4680   38.5516   39.6301 H   0  0  0  0  0  0  0  0  0  0  0  0
   31.1027   36.7645   40.7444 H   0  0  0  0  0  0  0  0  0  0  0  0
   30.6651   34.6093   39.5237 H   0  0  0  0  0  0  0  0  0  0  0  0
  1  2  2  0
  1  3  1  0
  1  8  1  0
  2  5  1  0
  2 18  1  0
  3  4  1  0
  3 10  2  0
  4 19  1  0
  4 20  1  0
  5  6  2  0
  5 11  1  0
  6  7  1  0
  6 21  1  0
  7  8  2  0
  7 22  1  0
  8  9  1  0
  9 10  1  0
  9 23  1  0
 11 12  2  0
 11 16  1  0
 12 13  1  0
 12 24  1  0
 13 14  2  0
 13 25  1  0
 14 15  1  0
 14 26  1  0
 15 16  2  0
 15 17  1  0
M  END
>  <r_exp_dg>  (5) 
-7.14398

>  <experimental dG reference units>  (5) 
kcal/mol

>  <experimental dG reference field>  (5) 
r_exp_dg

>  <kJ/mol experimental dG>  (5) 
-29.890412320000003

>  <kcal/mol experimental dG>  (5) 
-7.14398

>  <AmberAM1BCCCache>  (5) 
gASVSQIAAAAAAABdlCiMFm51bXB5Ll9jb3JlLm11bHRpYXJyYXmUjAZzY2FsYXKUk5SMBW51bXB5lIwFZHR5cGWUk5SMAmY4lImIh5RSlChLA4wBPJROTk5K/////0r/////SwB0lGJDCPSYdf0y3AXAlIaUUpRoA2gJQwjASKn2DN/ev5SGlFKUaANoCUMIV+vJNZWkGUCUhpRSlGgDaAlDCGmGz+IIAiTAlIaUUpRoA2gJQwh109LrGnwBwJSGlFKUaANoCUMI+h/k6Fy35L+UhpRSlGgDaAlDCMZOdPpFRvy/lIaUUpRoA2gJQwiYN8Zsb4Pdv5SGlFKUaANoCUMIj2WnKyIJrj+UhpRSlGgDaAlDCGL1VSNbrRvAlIaUUpRoA2gJQwhFMoZWYtAWQJSGlFKUaANoCUMI1q7c3ogHB8CUhpRSlGgDaAlDCLkN+xSZp++/lIaUUpRoA2gJQwgGvWjlsXYGwJSGlFKUaANoCUMIf6MJRUJnF0CUhpRSlGgDaAlDCOa/omvW1B7AlIaUUpRoA2gJQwhRRWxL1ab8v5SGlFKUaANoCUMI9FX+4eZq+j+UhpRSlGgDaAlDCEya3ts5qhJAlIaUUpRoA2gJQwhMmt7bOaoSQJSGlFKUaANoCUMIwBPGGNIO/T+UhpRSlGgDaAlDCE8+aixNXPs/lIaUUpRoA2gJQwgBS94kmkQMQJSGlFKUaANoCUMIHzDeJSTt+z+UhpRSlGgDaAlDCAlD7oMFLPs/lIaUUpRoA2gJQwjXALa68M/9P5SGlFKUZS4=

$$$$
4a
     RDKit          3D

 24 26  0  0  1  0  0  0  0  0999 V2000
   33.5806   40.8499   36.3839 C   0  0  0  0  0  0  0  0  0  0  0  0
   32.9187   39.8527   37.1258 C   0  0  0  0  0  0  0  0  0  0  0  0
   33.3931   42.2340   36.0866 C   0  0  0  0  0  0  0  0  0  0  0  0
   32.3394   43.0498   36.5501 N   0  0  0  0  0  0  0  0  0  0  0  0
   33.4149   38.5243   37.1605 C   0  0  0  0  0  0  0  0  0  0  0  0
   34.5944   38.1966   36.4384 C   0  0  0  0  0  0  0  0  0  0  0  0
   35.2931   39.1748   35.7036 C   0  0  0  0  0  0  0  0  0  0  0  0
   34.7676   40.4785   35.6761 C   0  0  0  0  0  0  0  0  0  0  0  0
   35.1651   41.6501   35.0438 N   0  0  0  0  0  0  0  0  0  0  0  0
   34.3280   42.7008   35.2932 N   0  0  0  0  0  0  0  0  0  0  0  0
   32.6967   37.4988   37.9441 C   0  0  0  0  0  0  0  0  0  0  0  0
   31.9439   37.5562   39.0936 C   0  0  0  0  0  0  0  0  0  0  0  0
   31.5726   36.1947   39.3407 C   0  0  0  0  0  0  0  0  0  0  0  0
   32.0392   35.3438   38.4293 N   0  0  0  0  0  0  0  0  0  0  0  0
   32.7063   36.1545   37.5571 N   0  0  0  0  0  0  0  0  0  0  0  0
   32.0069   40.0980   37.6576 H   0  0  0  0  0  0  0  0  0  0  0  0
   31.5747   42.6294   37.0840 H   0  0  0  0  0  0  0  0  0  0  0  0
   32.1424   43.9574   36.1148 H   0  0  0  0  0  0  0  0  0  0  0  0
   34.9968   37.2002   36.4881 H   0  0  0  0  0  0  0  0  0  0  0  0
   36.1849   38.9095   35.1616 H   0  0  0  0  0  0  0  0  0  0  0  0
   36.0018   41.7970   34.4793 H   0  0  0  0  0  0  0  0  0  0  0  0
   31.7447   38.4365   39.6851 H   0  0  0  0  0  0  0  0  0  0  0  0
   30.9877   35.7977   40.1586 H   0  0  0  0  0  0  0  0  0  0  0  0
   33.1684   35.7785   36.7342 H   0  0  0  0  0  0  0  0  0  0  0  0
  1  2  2  0
  1  3  1  0
  1  8  1  0
  2  5  1  0
  2 16  1  0
  3  4  1  0
  3 10  2  0
  4 17  1  0
  4 18  1  0
  5  6  2  0
  5 11  1  0
  6  7  1  0
  6 19  1  0
  7  8  2  0
  7 20  1  0
  8  9  1  0
  9 10  1  0
  9 21  1  0
 11 15  1  0
 11 12  2  0
 12 13  1  0
 12 22  1  0
 13 23  1  0
 13 14  2  0
 14 15  1  0
 15 24  1  0
M  END
>  <r_exp_dg>  (6) 
-6.86423

>  <experimental dG reference units>  (6) 
kcal/mol

>  <experimental dG reference field>  (6) 
r_exp_dg

>  <kJ/mol experimental dG>  (6) 
-28.71993832

>  <kcal/mol experimental dG>  (6) 
-6.86423

>  <AmberAM1BCCCache>  (6) 
gASVIwIAAAAAAABdlCiMFm51bXB5Ll9jb3JlLm11bHRpYXJyYXmUjAZzY2FsYXKUk5SMBW51bXB5lIwFZHR5cGWUk5SMAmY4lImIh5RSlChLA4wBPJROTk5K/////0r/////SwB0lGJDCANdR+E4TgXAlIaUUpRoA2gJQwg5aTcVPG/av5SGlFKUaANoCUMICQ5lm0q7GUCUhpRSlGgDaAlDCEpzMA/JCCTAlIaUUpRoA2gJQwgD7vKuXyPlv5SGlFKUaANoCUMI99p0j+zK8L+UhpRSlGgDaAlDCM/pJyAzafq/lIaUUpRoA2gJQwgCxFHA96/gv5SGlFKUaANoCUMIKqvc9G+tsT+UhpRSlGgDaAlDCIHR2ae3ohvAlIaUUpRoA2gJQwgloYiHqR7kv5SGlFKUaANoCUMIaQFOjkYAC8CUhpRSlGgDaAlDCN2mx4+wjAtAlIaUUpRoA2gJQwhSd1UX2RUYwJSGlFKUaANoCUMI8KL+9C8Xxr+UhpRSlGgDaAlDCNXNWhrbhvs/lIaUUpRoA2gJQwj/vHlB78ASQJSGlFKUaANoCUMI/7x5Qe/AEkCUhpRSlGgDaAlDCE4LD4w3E/k/lIaUUpRoA2gJQwiP0t5xk1b7P5SGlFKUaANoCUMIxJLWG+FZDECUhpRSlGgDaAlDCLh4EvPk6/4/lIaUUpRoA2gJQwj+m3CPtD3gP5SGlFKUaANoCUMIemOusK08DkCUhpRSlGUu

$$$$
6
     RDKit          3D

 29 31  0  0  1  0  0  0  0  0999 V2000
   33.5782   40.8189   36.3717 C   0  0  0  0  0  0  0  0  0  0  0  0
   32.9062   39.7724   37.0348 C   0  0  0  0  0  0  0  0  0  0  0  0
   33.3772   42.2183   36.1601 C   0  0  0  0  0  0  0  0  0  0  0  0
   32.3060   42.9836   36.6507 N   0  0  0  0  0  0  0  0  0  0  0  0
   33.4346   38.4637   36.9864 C   0  0  0  0  0  0  0  0  0  0  0  0
   34.6488   38.1934   36.3150 C   0  0  0  0  0  0  0  0  0  0  0  0
   35.3304   39.2171   35.6423 C   0  0  0  0  0  0  0  0  0  0  0  0
   34.7851   40.5097   35.6750 C   0  0  0  0  0  0  0  0  0  0  0  0
   35.1639   41.7229   35.1251 N   0  0  0  0  0  0  0  0  0  0  0  0
   34.3192   42.7454   35.4276 N   0  0  0  0  0  0  0  0  0  0  0  0
   32.6901   37.3220   37.5009 C   0  0  0  0  0  0  0  0  0  0  0  0
   32.0893   36.3172   36.6917 C   0  0  0  0  0  0  0  0  0  0  0  0
   31.5007   35.3905   37.4497 N   0  0  0  0  0  0  0  0  0  0  0  0
   31.5378   35.9002   38.7657 O   0  0  0  0  0  0  0  0  0  0  0  0
   32.1691   37.1153   38.7377 C   0  0  0  0  0  0  0  0  0  0  0  0
   32.0636   37.9735   39.9299 C   0  0  0  0  0  0  0  0  0  0  0  0
   31.9222   36.3413   35.1853 C   0  0  0  0  0  0  0  0  0  0  0  0
   31.9655   39.9700   37.5266 H   0  0  0  0  0  0  0  0  0  0  0  0
   31.4992   42.5013   37.0559 H   0  0  0  0  0  0  0  0  0  0  0  0
   32.0970   43.8720   36.2040 H   0  0  0  0  0  0  0  0  0  0  0  0
   35.0365   37.1856   36.2769 H   0  0  0  0  0  0  0  0  0  0  0  0
   36.2429   39.0084   35.1039 H   0  0  0  0  0  0  0  0  0  0  0  0
   36.0032   41.9043   34.5755 H   0  0  0  0  0  0  0  0  0  0  0  0
   32.7058   38.8489   39.8709 H   0  0  0  0  0  0  0  0  0  0  0  0
   31.0556   38.3539   39.9220 H   0  0  0  0  0  0  0  0  0  0  0  0
   32.2720   37.4176   40.8473 H   0  0  0  0  0  0  0  0  0  0  0  0
   31.9021   35.3600   34.7299 H   0  0  0  0  0  0  0  0  0  0  0  0
   30.9732   36.8133   34.9290 H   0  0  0  0  0  0  0  0  0  0  0  0
   32.7020   36.9449   34.7205 H   0  0  0  0  0  0  0  0  0  0  0  0
  1  2  2  0
  1  3  1  0
  1  8  1  0
  2  5  1  0
  2 18  1  0
  3  4  1  0
  3 10  2  0
  4 19  1  0
  4 20  1  0
  5  6  2  0
  5 11  1  0
  6  7  1  0
  6 21  1  0
  7  8  2  0
  7 22  1  0
  8  9  1  0
  9 10  1  0
  9 23  1  0
 11 12  1  0
 11 15  2  0
 12 13  2  0
 12 17  1  0
 13 14  1  0
 14 15  1  0
 15 16  1  0
 16 24  1  0
 16 25  1  0
 16 26  1  0
 17 27  1  0
 17 28  1  0
 17 29  1  0
M  END
>  <r_exp_dg>  (7) 
-6.19864

>  <experimental dG reference units>  (7) 
kcal/mol

>  <experimental dG reference field>  (7) 
r_exp_dg

>  <kJ/mol experimental dG>  (7) 
-25.935109760000003

>  <kcal/mol experimental dG>  (7) 
-6.19864

>  <AmberAM1BCCCache>  (7) 
gASVggIAAAAAAABdlCiMFm51bXB5Ll9jb3JlLm11bHRpYXJyYXmUjAZzY2FsYXKUk5SMBW51bXB5lIwFZHR5cGWUk5SMAmY4lImIh5RSlChLA4wBPJROTk5K/////0r/////SwB0lGJDCDVxl9PEHQXAlIaUUpRoA2gJQwiyUUPWcKDjv5SGlFKUaANoCUMINwxkOwd/GUCUhpRSlGgDaAlDCFZ4xAus/CPAlIaUUpRoA2gJQwhHmVdzU3Ldv5SGlFKUaANoCUMIEyNC9Vqy77+UhpRSlGgDaAlDCAIEPP4hmfq/lIaUUpRoA2gJQwgJ3GFvgzHiv5SGlFKUaANoCUMITrxam/yysT+UhpRSlGgDaAlDCGvaIIuPlhvAlIaUUpRoA2gJQwjCntsD92wJwJSGlFKUaANoCUMIWmamtWWMD0CUhpRSlGgDaAlDCDus/mmCLRHAlIaUUpRoA2gJQwjkCVjShUf2v5SGlFKUaANoCUMI1ChgEYTVCUCUhpRSlGgDaAlDCMtjtoO53Pq/lIaUUpRoA2gJQwjkhFLow4r5v5SGlFKUaANoCUMIRsva8YVl+j+UhpRSlGgDaAlDCKG31Z/hqBJAlIaUUpRoA2gJQwiht9Wf4agSQJSGlFKUaANoCUMIRsva8YVl+j+UhpRSlGgDaAlDCFu4ypOkJvs/lIaUUpRoA2gJQwgIiI7YxSkMQJSGlFKUaANoCUMIsah6UsWF6T+UhpRSlGgDaAlDCLGoelLFhek/lIaUUpRoA2gJQwixqHpSxYXpP5SGlFKUaANoCUMIWvS6ykqB5j+UhpRSlGgDaAlDCFr0uspKgeY/lIaUUpRoA2gJQwha9LrKSoHmP5SGlFKUZS4=

$$$$
3
     RDKit          3D

 27 29  0  0  1  0  0  0  0  0999 V2000
   34.7057   40.4537   35.7102 C   0  0  0  0  0  0  0  0  0  0  0  0
   35.2963   39.1709   35.7041 C   0  0  0  0  0  0  0  0  0  0  0  0
   34.8346   41.6436   34.9666 C   0  0  0  0  0  0  0  0  0  0  0  0
   35.4966   41.6381   33.7499 N   0  0  0  0  0  0  0  0  0  0  0  0
   34.6363   38.1325   36.3784 C   0  0  0  0  0  0  0  0  0  0  0  0
   33.4243   38.3816   37.0782 C   0  0  0  0  0  0  0  0  0  0  0  0
   32.8943   39.6810   37.1623 C   0  0  0  0  0  0  0  0  0  0  0  0
   33.5422   40.7034   36.4908 C   0  0  0  0  0  0  0  0  0  0  0  0
   33.2607   42.0510   36.3179 N   0  0  0  0  0  0  0  0  0  0  0  0
   34.0620   42.6272   35.3816 N   0  0  0  0  0  0  0  0  0  0  0  0
   31.3086   35.2524   39.0776 C   0  0  0  0  0  0  0  0  0  0  0  0
   31.4198   36.5224   39.6789 C   0  0  0  0  0  0  0  0  0  0  0  0
   32.1098   37.5498   39.0142 C   0  0  0  0  0  0  0  0  0  0  0  0
   32.6951   37.3156   37.7468 C   0  0  0  0  0  0  0  0  0  0  0  0
   32.5734   36.0446   37.1435 C   0  0  0  0  0  0  0  0  0  0  0  0
   31.8840   35.0125   37.8098 C   0  0  0  0  0  0  0  0  0  0  0  0
   36.1735   38.9649   35.1078 H   0  0  0  0  0  0  0  0  0  0  0  0
   35.9631   40.7640   33.5284 H   0  0  0  0  0  0  0  0  0  0  0  0
   36.1860   42.4049   33.6828 H   0  0  0  0  0  0  0  0  0  0  0  0
   35.0464   37.1328   36.3357 H   0  0  0  0  0  0  0  0  0  0  0  0
   31.9721   39.8872   37.6845 H   0  0  0  0  0  0  0  0  0  0  0  0
   32.4878   42.5634   36.7379 H   0  0  0  0  0  0  0  0  0  0  0  0
   30.7798   34.4653   39.5960 H   0  0  0  0  0  0  0  0  0  0  0  0
   30.9801   36.7067   40.6478 H   0  0  0  0  0  0  0  0  0  0  0  0
   32.1997   38.5117   39.4955 H   0  0  0  0  0  0  0  0  0  0  0  0
   33.0089   35.8530   36.1726 H   0  0  0  0  0  0  0  0  0  0  0  0
   31.7938   34.0388   37.3505 H   0  0  0  0  0  0  0  0  0  0  0  0
  1  2  2  0
  1  3  1  0
  1  8  1  0
  2  5  1  0
  2 17  1  0
  3  4  1  0
  3 10  2  0
  4 18  1  0
  4 19  1  0
  5  6  2  0
  5 20  1  0
  6  7  1  0
  6 14  1  0
  7  8  2  0
  7 21  1  0
  8  9  1  0
  9 10  1  0
  9 22  1  0
 11 12  2  0
 11 16  1  0
 11 23  1  0
 12 13  1  0
 12 24  1  0
 13 14  2  0
 13 25  1  0
 14 15  1  0
 15 16  2  0
 15 26  1  0
 16 27  1  0
M  END
>  <r_exp_dg>  (8) 
-5.23562

>  <experimental dG reference units>  (8) 
kcal/mol

>  <experimental dG reference field>  (8) 
r_exp_dg

>  <kJ/mol experimental dG>  (8) 
-21.90583408

>  <kcal/mol experimental dG>  (8) 
-5.23562

>  <AmberAM1BCCCache>  (8) 
gASVXAIAAAAAAABdlCiMFm51bXB5Ll9jb3JlLm11bHRpYXJyYXmUjAZzY2FsYXKUk5SMBW51bXB5lIwFZHR5cGWUk5SMAmY4lImIh5RSlChLA4wBPJROTk5K/////0r/////SwB0lGJDCNB7EfSM7QTAlIaUUpRoA2gJQwgaFNPSuQXnv5SGlFKUaANoCUMIGAgIQRGLGUCUhpRSlGgDaAlDCDd5EfO4AiTAlIaUUpRoA2gJQwjB23vNVaz8v5SGlFKUaANoCUMIquFSLbYIib+UhpRSlGgDaAlDCA4/UPt0tvi/lIaUUpRoA2gJQwhasQHKrdXkv5SGlFKUaANoCUMI2mgZjPi5tz+UhpRSlGgDaAlDCHLXNgLx0hvAlIaUUpRoA2gJQwgoYOxff2T3v5SGlFKUaANoCUMIDj9Q+3S2+L+UhpRSlGgDaAlDCFmIzkceyvW/lIaUUpRoA2gJQwj1oUsUVF3hv5SGlFKUaANoCUMIWYjORx7K9b+UhpRSlGgDaAlDCA4/UPt0tvi/lIaUUpRoA2gJQwj6yPYO1wT6P5SGlFKUaANoCUMI37U70cecEkCUhpRSlGgDaAlDCN+1O9HHnBJAlIaUUpRoA2gJQwg/xHK3HjX6P5SGlFKUaANoCUMI36daqsxW+z+UhpRSlGgDaAlDCFWQJBbfmAtAlIaUUpRoA2gJQwie4IrEcBP5P5SGlFKUaANoCUMInuCKxHAT+T+UhpRSlGgDaAlDCG/S/r1HpPk/lIaUUpRoA2gJQwhv0v69R6T5P5SGlFKUaANoCUMInuCKxHAT+T+UhpRSlGUu

$$$$
1_3E62
     RDKit          3D

 17 18  0  0  1  0  0  0  0  0999 V2000
   33.5725   40.8082   36.3588 C   0  0  0  0  0  0  0  0  0  0  0  0
   32.9022   39.7525   37.0165 C   0  0  0  0  0  0  0  0  0  0  0  0
   33.3729   42.2068   36.1316 C   0  0  0  0  0  0  0  0  0  0  0  0
   32.2915   42.9552   36.5889 N   0  0  0  0  0  0  0  0  0  0  0  0
   33.4255   38.4376   37.0314 C   0  0  0  0  0  0  0  0  0  0  0  0
   34.6492   38.1828   36.3679 C   0  0  0  0  0  0  0  0  0  0  0  0
   32.4995   37.0396   37.9270 Br  0  0  0  0  0  0  0  0  0  0  0  0
   35.3410   39.2138   35.7023 C   0  0  0  0  0  0  0  0  0  0  0  0
   34.7974   40.5093   35.7056 C   0  0  0  0  0  0  0  0  0  0  0  0
   35.1925   41.7259   35.1722 N   0  0  0  0  0  0  0  0  0  0  0  0
   34.3336   42.7469   35.4297 N   0  0  0  0  0  0  0  0  0  0  0  0
   31.9704   39.9591   37.5180 H   0  0  0  0  0  0  0  0  0  0  0  0
   32.2192   43.9333   36.3542 H   0  0  0  0  0  0  0  0  0  0  0  0
   31.5280   42.5361   37.0951 H   0  0  0  0  0  0  0  0  0  0  0  0
   35.0526   37.1802   36.3763 H   0  0  0  0  0  0  0  0  0  0  0  0
   36.2737   39.0074   35.1998 H   0  0  0  0  0  0  0  0  0  0  0  0
   36.0299   41.8949   34.6349 H   0  0  0  0  0  0  0  0  0  0  0  0
  1  2  2  0
  1  3  1  0
  1  9  1  0
  2  5  1  0
  2 12  1  0
  3  4  1  0
  3 11  2  0
  4 13  1  0
  4 14  1  0
  5  6  2  0
  5  7  1  0
  6  8  1  0
  6 15  1  0
  8  9  2  0
  8 16  1  0
  9 10  1  0
 10 11  1  0
 10 17  1  0
M  END
>  <r_exp_dg>  (9) 
-5.98669

>  <experimental dG reference units>  (9) 
kcal/mol

>  <experimental dG reference field>  (9) 
r_exp_dg

>  <kJ/mol experimental dG>  (9) 
-25.048310960000002

>  <kcal/mol experimental dG>  (9) 
-5.98669

>  <AmberAM1BCCCache>  (9) 
gASVngEAAAAAAABdlCiMFm51bXB5Ll9jb3JlLm11bHRpYXJyYXmUjAZzY2FsYXKUk5SMBW51bXB5lIwFZHR5cGWUk5SMAmY4lImIh5RSlChLA4wBPJROTk5K/////0r/////SwB0lGJDCDA+OZLByAXAlIaUUpRoA2gJQwitQnenMPfVv5SGlFKUaANoCUMIWxamv3HGGUCUhpRSlGgDaAlDCIluH3I+CSTAlIaUUpRoA2gJQwgWJCN3iCXov5SGlFKUaANoCUMIDyd6+vwR6r+UhpRSlGgDaAlDCIpXNE3ccvC/lIaUUpRoA2gJQwidtRMxtf36v5SGlFKUaANoCUMId2HjEuTn3L+UhpRSlGgDaAlDCOWtPuuH3Kw/lIaUUpRoA2gJQwgvyZiDkJcbwJSGlFKUaANoCUMIMtxOTZZ0/D+UhpRSlGgDaAlDCOlFq3ANxhJAlIaUUpRoA2gJQwjpRatwDcYSQJSGlFKUaANoCUMIp+VW/AYU/D+UhpRSlGgDaAlDCBzvXqt3s/s/lIaUUpRoA2gJQwgLoZY4U4gMQJSGlFKUZS4=

$$$$
7
     RDKit          3D

 29 31  0  0  1  0  0  0  0  0999 V2000
   33.5640   40.8013   36.3530 C   0  0  0  0  0  0  0  0  0  0  0  0
   32.8748   39.7514   36.9823 C   0  0  0  0  0  0  0  0  0  0  0  0
   33.3738   42.2068   36.1446 C   0  0  0  0  0  0  0  0  0  0  0  0
   32.3014   42.9853   36.6129 N   0  0  0  0  0  0  0  0  0  0  0  0
   33.4137   38.4478   36.9470 C   0  0  0  0  0  0  0  0  0  0  0  0
   34.6479   38.1873   36.3154 C   0  0  0  0  0  0  0  0  0  0  0  0
   35.3482   39.2193   35.6850 C   0  0  0  0  0  0  0  0  0  0  0  0
   34.7989   40.5084   35.7084 C   0  0  0  0  0  0  0  0  0  0  0  0
   35.1926   41.7213   35.1705 N   0  0  0  0  0  0  0  0  0  0  0  0
   34.3404   42.7419   35.4570 N   0  0  0  0  0  0  0  0  0  0  0  0
   32.7059   37.3419   37.5561 C   0  0  0  0  0  0  0  0  0  0  0  0
   32.6294   35.8213   36.7227 S   0  0  0  0  0  0  0  0  0  0  0  0
   31.5674   35.1968   37.9866 C   0  0  0  0  0  0  0  0  0  0  0  0
   31.3983   36.0710   39.0048 N   0  0  0  0  0  0  0  0  0  0  0  0
   32.0324   37.3080   38.7524 C   0  0  0  0  0  0  0  0  0  0  0  0
   30.8777   33.8584   37.9047 C   0  0  0  0  0  0  0  0  0  0  0  0
   31.9585   38.4337   39.7366 C   0  0  0  0  0  0  0  0  0  0  0  0
   31.9182   39.9529   37.4396 H   0  0  0  0  0  0  0  0  0  0  0  0
   31.4856   42.5211   37.0155 H   0  0  0  0  0  0  0  0  0  0  0  0
   32.1137   43.8879   36.1777 H   0  0  0  0  0  0  0  0  0  0  0  0
   35.0623   37.1914   36.2972 H   0  0  0  0  0  0  0  0  0  0  0  0
   36.2799   39.0229   35.1664 H   0  0  0  0  0  0  0  0  0  0  0  0
   36.0541   41.9149   34.6577 H   0  0  0  0  0  0  0  0  0  0  0  0
   29.8440   33.9959   37.5918 H   0  0  0  0  0  0  0  0  0  0  0  0
   30.8818   33.3698   38.8801 H   0  0  0  0  0  0  0  0  0  0  0  0
   31.3846   33.2190   37.1723 H   0  0  0  0  0  0  0  0  0  0  0  0
   32.8292   39.0799   39.6632 H   0  0  0  0  0  0  0  0  0  0  0  0
   31.1065   39.0712   39.5231 H   0  0  0  0  0  0  0  0  0  0  0  0
   31.9071   38.0318   40.7382 H   0  0  0  0  0  0  0  0  0  0  0  0
  1  2  2  0
  1  3  1  0
  1  8  1  0
  2  5  1  0
  2 18  1  0
  3  4  1  0
  3 10  2  0
  4 19  1  0
  4 20  1  0
  5  6  2  0
  5 11  1  0
  6  7  1  0
  6 21  1  0
  7  8  2  0
  7 22  1  0
  8  9  1  0
  9 10  1  0
  9 23  1  0
 11 12  1  0
 11 15  2  0
 12 13  1  0
 13 14  2  0
 13 16  1  0
 14 15  1  0
 15 17  1  0
 16 24  1  0
 16 25  1  0
 16 26  1  0
 17 27  1  0
 17 28  1  0
 17 29  1  0
M  END
>  <r_exp_dg>  (10) 
-8.86058

>  <experimental dG reference units>  (10) 
kcal/mol

>  <experimental dG reference field>  (10) 
r_exp_dg

>  <kJ/mol experimental dG>  (10) 
-37.07266672

>  <kcal/mol experimental dG>  (10) 
-8.86058

>  <AmberAM1BCCCache>  (10) 
gASVggIAAAAAAABdlCiMFm51bXB5Ll9jb3JlLm11bHRpYXJyYXmUjAZzY2FsYXKUk5SMBW51bXB5lIwFZHR5cGWUk5SMAmY4lImIh5RSlChLA4wBPJROTk5K/////0r/////SwB0lGJDCBwdGmM3TQXAlIaUUpRoA2gJQwicMHZ/bnviv5SGlFKUaANoCUMIW7A9hqejGUCUhpRSlGgDaAlDCOejlbp/AiTAlIaUUpRoA2gJQwiH+Gzv5+3ev5SGlFKUaANoCUMIWR6Nq6pr7b+UhpRSlGgDaAlDCNFbQR0H+Pq/lIaUUpRoA2gJQwgHqIS6n83hv5SGlFKUaANoCUMIAqiEup/NsT+UhpRSlGgDaAlDCC8vAb1auhvAlIaUUpRoA2gJQwiau7uinjv7v5SGlFKUaANoCUMIsJhgN8t/9r+UhpRSlGgDaAlDCAds1z3cLBNAlIaUUpRoA2gJQwiHEsPQXeQdwJSGlFKUaANoCUMI8bqUGIEMEUCUhpRSlGgDaAlDCFf067xC+Pi/lIaUUpRoA2gJQwiHAnjDa2f4v5SGlFKUaANoCUMIjGDFdL/H+j+UhpRSlGgDaAlDCCFecRZetRJAlIaUUpRoA2gJQwghXnEWXrUSQJSGlFKUaANoCUMIjGDFdL/H+j+UhpRSlGgDaAlDCBdXvcVOKPs/lIaUUpRoA2gJQwjD2UkddxIMQJSGlFKUaANoCUMI0DGgLp+E5j+UhpRSlGgDaAlDCNAxoC6fhOY/lIaUUpRoA2gJQwjQMaAun4TmP5SGlFKUaANoCUMIGGHImdKh5D+UhpRSlGgDaAlDCBhhyJnSoeQ/lIaUUpRoA2gJQwgYYciZ0qHkP5SGlFKUZS4=

$$$$
