338
     RDKit          3D

 37 39  0  0  0  0  0  0  0  0999 V2000
   27.6451    1.5396  -11.1263 O   0  0  0  0  0  0  0  0  0  0  0  0
   27.1573    0.3054  -11.6394 C   0  0  2  0  0  0  0  0  0  0  0  0
   26.5145    0.3811  -13.0370 C   0  0  0  0  0  0  0  0  0  0  0  0
   25.0296    0.6292  -12.8066 C   0  0  1  0  0  0  0  0  0  0  0  0
   24.8033   -0.0375  -11.4699 C   0  0  0  0  0  0  0  0  0  0  0  0
   26.0149   -0.2195  -10.7892 C   0  0  0  0  0  0  0  0  0  0  0  0
   26.0208   -0.7620   -9.4965 C   0  0  0  0  0  0  0  0  0  0  0  0
   24.8017   -1.0822   -8.8969 C   0  0  0  0  0  0  0  0  0  0  0  0
   23.6059   -0.9366   -9.5941 C   0  0  0  0  0  0  0  0  0  0  0  0
   23.6020   -0.4342  -10.9000 C   0  0  0  0  0  0  0  0  0  0  0  0
   22.4861   -0.2954  -11.6940 O   0  0  0  0  0  0  0  0  0  0  0  0
   21.2424   -0.5775  -11.1970 C   0  0  0  0  0  0  0  0  0  0  0  0
   20.6737   -1.8297  -11.4038 C   0  0  0  0  0  0  0  0  0  0  0  0
   19.4234   -2.1113  -10.8674 C   0  0  0  0  0  0  0  0  0  0  0  0
   18.8511   -3.3118  -11.0589 F   0  0  0  0  0  0  0  0  0  0  0  0
   18.7462   -1.1423  -10.1427 C   0  0  0  0  0  0  0  0  0  0  0  0
   19.2860    0.1245   -9.9701 C   0  0  0  0  0  0  0  0  0  0  0  0
   18.5760    1.1643   -9.2539 C   0  0  0  0  0  0  0  0  0  0  0  0
   20.5501    0.3903  -10.4736 C   0  0  0  0  0  0  0  0  0  0  0  0
   27.5283   -1.0639   -8.5710 S   0  0  0  0  0  6  0  0  0  0  0  0
   27.2110   -1.9989   -7.4925 O   0  0  0  0  0  0  0  0  0  0  0  0
   28.6000   -1.3708   -9.5178 O   0  0  0  0  0  0  0  0  0  0  0  0
   27.0777    1.2809  -13.8505 F   0  0  0  0  0  0  0  0  0  0  0  0
   18.0176    1.9927   -8.6784 N   0  0  0  0  0  0  0  0  0  0  0  0
   24.8400    1.9615  -12.6525 F   0  0  0  0  0  0  0  0  0  0  0  0
   26.6372   -0.7929  -13.6486 F   0  0  0  0  0  0  0  0  0  0  0  0
   27.9360    0.4657   -7.8636 N   0  0  0  0  0  0  0  0  0  0  0  0
   28.3611    1.8550  -11.6954 H   0  0  0  0  0  0  0  0  0  0  0  0
   27.9701   -0.4195  -11.7119 H   0  0  0  0  0  0  0  0  0  0  0  0
   24.3886    0.2707  -13.6271 H   0  0  0  0  0  0  0  0  0  0  0  0
   24.7736   -1.4789   -7.8939 H   0  0  0  0  0  0  0  0  0  0  0  0
   22.6914   -1.2459   -9.1138 H   0  0  0  0  0  0  0  0  0  0  0  0
   21.2074   -2.5951  -11.9425 H   0  0  0  0  0  0  0  0  0  0  0  0
   17.8099   -1.4198   -9.7083 H   0  0  0  0  0  0  0  0  0  0  0  0
   21.0016    1.3428  -10.2620 H   0  0  0  0  0  0  0  0  0  0  0  0
   27.2694    0.7696   -7.1547 H   0  0  0  0  0  0  0  0  0  0  0  0
   28.1746    1.1824   -8.5552 H   0  0  0  0  0  0  0  0  0  0  0  0
  1  2  1  0
  1 28  1  0
  2  3  1  0
  2  6  1  0
  2 29  1  6
  3  4  1  0
  3 23  1  0
  3 26  1  0
  4  5  1  0
  4 25  1  0
  4 30  1  6
  5  6  2  0
  5 10  1  0
  6  7  1  0
  7  8  2  0
  7 20  1  0
  8  9  1  0
  8 31  1  0
  9 10  2  0
  9 32  1  0
 10 11  1  0
 11 12  1  0
 12 13  2  0
 12 19  1  0
 13 14  1  0
 13 33  1  0
 14 15  1  0
 14 16  2  0
 16 17  1  0
 16 34  1  0
 17 18  1  0
 17 19  2  0
 18 24  3  0
 19 35  1  0
 20 21  2  0
 20 22  2  0
 20 27  1  0
 27 36  1  0
 27 37  1  0
M  END
>  <ID>  (1) 
338

>  <IC50[uM](SPA)>  (1) 
0.012999999999999999

>  <atom.dprop.PartialCharge>  (1) 
-0.5625627 0.13695183 0.3790249 0.22271737 -0.19576384 0.05488492 -0.3610273 -0.004268579 -0.17623569 0.21908268 -0.2550324 0.13107392 -0.17763332 0.15102318 -0.12846823 -0.14492984 0.043149218 0.2321599 -0.11834087 1.540926 -0.6486854 -0.6486854 -0.21530148 -0.33919168 -0.20705883 -0.21530148 -1.0264267 0.42180482 0.090258755 0.08414443 0.14113653 0.16343115 0.17098996 0.17060347 0.16784827 0.45185137 0.45185137

>  <experimental dG reference units>  (1) 
uM

>  <experimental dG reference field>  (1) 
IC50[uM](SPA)

>  <kJ/mol experimental dG>  (1) 
-45.293257787636406

>  <kcal/mol experimental dG>  (1) 
-10.825348419607172

$$$$
43
     RDKit          3D

 34 35  0  0  0  0  0  0  0  0999 V2000
   27.3206    0.2092  -11.5444 C   0  0  0  0  0  0  0  0  0  0  0  0
   24.8104   -0.0377  -11.5023 C   0  0  0  0  0  0  0  0  0  0  0  0
   26.0342   -0.2249  -10.8317 C   0  0  0  0  0  0  0  0  0  0  0  0
   26.0391   -0.7726   -9.5293 C   0  0  0  0  0  0  0  0  0  0  0  0
   24.8129   -1.0870   -8.9213 C   0  0  0  0  0  0  0  0  0  0  0  0
   23.6118   -0.9391   -9.6083 C   0  0  0  0  0  0  0  0  0  0  0  0
   23.6108   -0.4248  -10.9220 C   0  0  0  0  0  0  0  0  0  0  0  0
   22.4761   -0.3049  -11.6918 O   0  0  0  0  0  0  0  0  0  0  0  0
   21.2375   -0.5838  -11.1900 C   0  0  0  0  0  0  0  0  0  0  0  0
   20.6642   -1.8394  -11.3980 C   0  0  0  0  0  0  0  0  0  0  0  0
   19.4099   -2.1222  -10.8637 C   0  0  0  0  0  0  0  0  0  0  0  0
   18.7315   -1.1370  -10.1413 C   0  0  0  0  0  0  0  0  0  0  0  0
   19.2646    0.1136   -9.9710 C   0  0  0  0  0  0  0  0  0  0  0  0
   18.5795    1.1649   -9.2431 C   0  0  0  0  0  0  0  0  0  0  0  0
   20.5604    0.4002  -10.4797 C   0  0  0  0  0  0  0  0  0  0  0  0
   27.5401   -1.0912   -8.5545 S   0  0  0  0  0  6  0  0  0  0  0  0
   27.1859   -2.0084   -7.4841 O   0  0  0  0  0  0  0  0  0  0  0  0
   28.6206   -1.4509   -9.4586 O   0  0  0  0  0  0  0  0  0  0  0  0
   27.9627    0.5938   -7.7916 C   0  0  0  0  0  0  0  0  0  0  0  0
   27.7984    1.5671   -8.6677 F   0  0  0  0  0  0  0  0  0  0  0  0
   27.0861    0.7983   -6.7353 F   0  0  0  0  0  0  0  0  0  0  0  0
   24.7409    0.7017  -13.0762 Cl  0  0  0  0  0  0  0  0  0  0  0  0
   27.6879    1.5242  -11.1857 O   0  0  0  0  0  0  0  0  0  0  0  0
   18.0013    1.9953   -8.6849 N   0  0  0  0  0  0  0  0  0  0  0  0
   28.1313   -0.4949  -11.3851 H   0  0  0  0  0  0  0  0  0  0  0  0
   27.2003    0.1946  -12.6299 H   0  0  0  0  0  0  0  0  0  0  0  0
   24.7742   -1.4735   -7.9133 H   0  0  0  0  0  0  0  0  0  0  0  0
   22.6888   -1.2338   -9.1280 H   0  0  0  0  0  0  0  0  0  0  0  0
   21.2029   -2.5876  -11.9606 H   0  0  0  0  0  0  0  0  0  0  0  0
   18.9769   -3.1014  -11.0060 H   0  0  0  0  0  0  0  0  0  0  0  0
   17.7565   -1.3858   -9.7173 H   0  0  0  0  0  0  0  0  0  0  0  0
   21.0066    1.3603  -10.3264 H   0  0  0  0  0  0  0  0  0  0  0  0
   28.9730    0.5924   -7.4558 H   0  0  0  0  0  0  0  0  0  0  0  0
   28.4959    1.7705  -11.6621 H   0  0  0  0  0  0  0  0  0  0  0  0
  1  3  1  0
  1 23  1  0
  1 25  1  0
  1 26  1  0
  2  3  2  0
  2  7  1  0
  2 22  1  0
  3  4  1  0
  4  5  2  0
  4 16  1  0
  5  6  1  0
  5 27  1  0
  6  7  2  0
  6 28  1  0
  7  8  1  0
  8  9  1  0
  9 10  2  0
  9 15  1  0
 10 11  1  0
 10 29  1  0
 11 12  2  0
 11 30  1  0
 12 13  1  0
 12 31  1  0
 13 14  1  0
 13 15  2  0
 14 24  3  0
 15 32  1  0
 16 17  2  0
 16 18  2  0
 16 19  1  0
 19 20  1  0
 19 21  1  0
 19 33  1  0
 23 34  1  0
M  END
>  <ID>  (2) 
43

>  <IC50[uM](SPA)>  (2) 
0.41999999999999998

>  <atom.dprop.PartialCharge>  (2) 
0.15686212 -0.027112927 0.050933167 -0.40524304 -0.017078009 -0.15164508 0.16812003 -0.23667908 0.10415454 -0.13542402 -0.11322905 -0.10200627 0.007285282 0.23758173 -0.09704313 1.3285785 -0.614695 -0.614695 0.32249713 -0.22418846 -0.22418846 -0.027493984 -0.5791447 -0.3530207 0.056658216 0.056658216 0.16190587 0.16563067 0.15524045 0.14590453 0.15280256 0.161018 0.076265246 0.41479075

>  <experimental dG reference units>  (2) 
uM

>  <experimental dG reference field>  (2) 
IC50[uM](SPA)

>  <kJ/mol experimental dG>  (2) 
-36.62461818886228

>  <kcal/mol experimental dG>  (2) 
-8.753493830990028

$$$$
235
     RDKit          3D

 37 39  0  0  0  0  0  0  0  0999 V2000
   27.5822    1.5627  -11.2551 O   0  0  0  0  0  0  0  0  0  0  0  0
   27.1468    0.2863  -11.6761 C   0  0  2  0  0  0  0  0  0  0  0  0
   26.5086    0.3643  -13.0642 C   0  0  0  0  0  0  0  0  0  0  0  0
   25.0265    0.6075  -12.8332 C   0  0  0  0  0  0  0  0  0  0  0  0
   24.7967   -0.0605  -11.4946 C   0  0  0  0  0  0  0  0  0  0  0  0
   26.0077   -0.2336  -10.8115 C   0  0  0  0  0  0  0  0  0  0  0  0
   26.0091   -0.7786   -9.5174 C   0  0  0  0  0  0  0  0  0  0  0  0
   24.7944   -1.0867   -8.9034 C   0  0  0  0  0  0  0  0  0  0  0  0
   23.5936   -0.9312   -9.5951 C   0  0  0  0  0  0  0  0  0  0  0  0
   23.5911   -0.4269  -10.8990 C   0  0  0  0  0  0  0  0  0  0  0  0
   22.4730   -0.2997  -11.6967 O   0  0  0  0  0  0  0  0  0  0  0  0
   21.2211   -0.5557  -11.2088 C   0  0  0  0  0  0  0  0  0  0  0  0
   20.5807   -1.7704  -11.4636 C   0  0  0  0  0  0  0  0  0  0  0  0
   19.3293   -2.0485  -11.0244 N   0  0  0  0  0  0  0  0  0  0  0  0
   18.6868   -1.0883  -10.3158 C   0  0  0  0  0  0  0  0  0  0  0  0
   19.2441    0.1607  -10.0304 C   0  0  0  0  0  0  0  0  0  0  0  0
   18.5232    1.1702   -9.2782 C   0  0  0  0  0  0  0  0  0  0  0  0
   20.5375    0.4137  -10.4764 C   0  0  0  0  0  0  0  0  0  0  0  0
   27.5181   -1.0772   -8.5972 S   0  0  0  0  0  6  0  0  0  0  0  0
   27.2199   -2.0291   -7.5251 O   0  0  0  0  0  0  0  0  0  0  0  0
   28.5736   -1.4146   -9.5547 O   0  0  0  0  0  0  0  0  0  0  0  0
   27.9098    0.6015   -7.8247 C   0  0  0  0  0  0  0  0  0  0  0  0
   27.0599    1.2997  -13.8390 F   0  0  0  0  0  0  0  0  0  0  0  0
   26.6397   -0.8135  -13.6733 F   0  0  0  0  0  0  0  0  0  0  0  0
   17.9557    1.9748   -8.6688 N   0  0  0  0  0  0  0  0  0  0  0  0
   29.1729    0.5500   -7.4603 F   0  0  0  0  0  0  0  0  0  0  0  0
   27.7563    1.5773   -8.6957 F   0  0  0  0  0  0  0  0  0  0  0  0
   27.1098    0.7930   -6.7781 F   0  0  0  0  0  0  0  0  0  0  0  0
   28.3814    1.8217  -11.7482 H   0  0  0  0  0  0  0  0  0  0  0  0
   27.9776   -0.4206  -11.7025 H   0  0  0  0  0  0  0  0  0  0  0  0
   24.4121    0.1832  -13.6241 H   0  0  0  0  0  0  0  0  0  0  0  0
   24.8083    1.6771  -12.7815 H   0  0  0  0  0  0  0  0  0  0  0  0
   24.7762   -1.4676   -7.8938 H   0  0  0  0  0  0  0  0  0  0  0  0
   22.6785   -1.2385   -9.1186 H   0  0  0  0  0  0  0  0  0  0  0  0
   21.0644   -2.5457  -12.0352 H   0  0  0  0  0  0  0  0  0  0  0  0
   17.7081   -1.3631   -9.9794 H   0  0  0  0  0  0  0  0  0  0  0  0
   21.0111    1.3563  -10.2603 H   0  0  0  0  0  0  0  0  0  0  0  0
  1  2  1  0
  1 29  1  0
  2  3  1  0
  2  6  1  0
  2 30  1  6
  3  4  1  0
  3 23  1  0
  3 24  1  0
  4  5  1  0
  4 31  1  0
  4 32  1  0
  5  6  2  0
  5 10  1  0
  6  7  1  0
  7  8  2  0
  7 19  1  0
  8  9  1  0
  8 33  1  0
  9 10  2  0
  9 34  1  0
 10 11  1  0
 11 12  1  0
 12 13  2  0
 12 18  1  0
 13 14  1  0
 13 35  1  0
 14 15  2  0
 15 16  1  0
 15 36  1  0
 16 17  1  0
 16 18  2  0
 17 25  3  0
 18 37  1  0
 19 20  2  0
 19 21  2  0
 19 22  1  0
 22 26  1  0
 22 27  1  0
 22 28  1  0
M  END
>  <ID>  (3) 
235

>  <IC50[uM](SPA)>  (3) 
0.037999999999999999

>  <atom.dprop.PartialCharge>  (3) 
-0.559326 0.15186271 0.4012359 -0.051152915 -0.1168846 0.05353573 -0.41240823 0.0032363273 -0.15318048 0.19577414 -0.24479985 -0.0034706667 0.39648962 -0.6397157 0.42690688 -0.10866369 0.23995967 -0.07631089 1.3482554 -0.60219836 -0.60219836 0.59567785 -0.2236886 -0.2236886 -0.3430492 -0.2409031 -0.2409031 -0.2409031 0.41965163 0.08993305 0.09323829 0.09323829 0.15171649 0.16501357 0.043290302 0.04610967 0.16831976

>  <experimental dG reference units>  (3) 
uM

>  <experimental dG reference field>  (3) 
IC50[uM](SPA)

>  <kJ/mol experimental dG>  (3) 
-42.61772257200248

>  <kcal/mol experimental dG>  (3) 
-10.185880155832331

$$$$
234
     RDKit          3D

 38 40  0  0  0  0  0  0  0  0999 V2000
   27.5728    1.5601  -11.1459 O   0  0  0  0  0  0  0  0  0  0  0  0
   27.1536    0.3088  -11.6552 C   0  0  2  0  0  0  0  0  0  0  0  0
   26.5252    0.3787  -13.0559 C   0  0  0  0  0  0  0  0  0  0  0  0
   25.0351    0.5810  -12.8466 C   0  0  0  0  0  0  0  0  0  0  0  0
   24.8123   -0.0916  -11.5082 C   0  0  0  0  0  0  0  0  0  0  0  0
   26.0213   -0.2538  -10.8166 C   0  0  0  0  0  0  0  0  0  0  0  0
   26.0217   -0.7899   -9.5190 C   0  0  0  0  0  0  0  0  0  0  0  0
   24.8061   -1.1035   -8.9088 C   0  0  0  0  0  0  0  0  0  0  0  0
   23.6060   -0.9317   -9.5917 C   0  0  0  0  0  0  0  0  0  0  0  0
   23.6085   -0.4312  -10.8990 C   0  0  0  0  0  0  0  0  0  0  0  0
   22.4887   -0.2465  -11.6759 O   0  0  0  0  0  0  0  0  0  0  0  0
   21.2536   -0.5375  -11.1765 C   0  0  0  0  0  0  0  0  0  0  0  0
   20.6850   -1.7900  -11.3895 C   0  0  0  0  0  0  0  0  0  0  0  0
   19.4306   -2.0624  -10.8562 C   0  0  0  0  0  0  0  0  0  0  0  0
   18.6842   -3.5700  -11.0979 Cl  0  0  0  0  0  0  0  0  0  0  0  0
   18.7499   -1.1042  -10.1192 C   0  0  0  0  0  0  0  0  0  0  0  0
   19.2995    0.1632   -9.9426 C   0  0  0  0  0  0  0  0  0  0  0  0
   18.5790    1.1976   -9.2292 C   0  0  0  0  0  0  0  0  0  0  0  0
   20.5645    0.4307  -10.4478 C   0  0  0  0  0  0  0  0  0  0  0  0
   27.5212   -1.0658   -8.5765 S   0  0  0  0  0  6  0  0  0  0  0  0
   27.2091   -1.9751   -7.4734 O   0  0  0  0  0  0  0  0  0  0  0  0
   28.6014   -1.4067   -9.5003 O   0  0  0  0  0  0  0  0  0  0  0  0
   27.9046    0.6147   -7.8636 C   0  0  0  0  0  0  0  0  0  0  0  0
   27.0583    1.3232  -13.8300 F   0  0  0  0  0  0  0  0  0  0  0  0
   26.6754   -0.7993  -13.6647 F   0  0  0  0  0  0  0  0  0  0  0  0
   18.0104    2.0266   -8.6666 N   0  0  0  0  0  0  0  0  0  0  0  0
   28.3370    1.8866  -11.6617 H   0  0  0  0  0  0  0  0  0  0  0  0
   28.0013   -0.3730  -11.7036 H   0  0  0  0  0  0  0  0  0  0  0  0
   24.4365    0.1828  -13.6670 H   0  0  0  0  0  0  0  0  0  0  0  0
   24.7950    1.6418  -12.7665 H   0  0  0  0  0  0  0  0  0  0  0  0
   24.7820   -1.4948   -7.9039 H   0  0  0  0  0  0  0  0  0  0  0  0
   22.6892   -1.2153   -9.0980 H   0  0  0  0  0  0  0  0  0  0  0  0
   21.2216   -2.5514  -11.9357 H   0  0  0  0  0  0  0  0  0  0  0  0
   17.8153   -1.3857   -9.6829 H   0  0  0  0  0  0  0  0  0  0  0  0
   21.0238    1.3833  -10.2559 H   0  0  0  0  0  0  0  0  0  0  0  0
   28.8492    0.5007   -7.3454 H   0  0  0  0  0  0  0  0  0  0  0  0
   27.1052    0.9088   -7.1861 H   0  0  0  0  0  0  0  0  0  0  0  0
   28.0235    1.3382   -8.6638 H   0  0  0  0  0  0  0  0  0  0  0  0
  1  2  1  0
  1 27  1  0
  2  3  1  0
  2  6  1  0
  2 28  1  6
  3  4  1  0
  3 24  1  0
  3 25  1  0
  4  5  1  0
  4 29  1  0
  4 30  1  0
  5  6  2  0
  5 10  1  0
  6  7  1  0
  7  8  2  0
  7 20  1  0
  8  9  1  0
  8 31  1  0
  9 10  2  0
  9 32  1  0
 10 11  1  0
 11 12  1  0
 12 13  2  0
 12 19  1  0
 13 14  1  0
 13 33  1  0
 14 15  1  0
 14 16  2  0
 16 17  1  0
 16 34  1  0
 17 18  1  0
 17 19  2  0
 18 26  3  0
 19 35  1  0
 20 21  2  0
 20 22  2  0
 20 23  1  0
 23 36  1  0
 23 37  1  0
 23 38  1  0
M  END
>  <ID>  (4) 
234

>  <IC50[uM](SPA)>  (4) 
0.025999999999999999

>  <atom.dprop.PartialCharge>  (4) 
-0.5645323 0.14430964 0.39696023 -0.057251282 -0.12771612 0.02284189 -0.34964383 -0.013500355 -0.17022713 0.18865395 -0.24568442 0.11587638 -0.13593258 0.036200806 -0.075066045 -0.1031459 0.020364143 0.23514386 -0.106995225 1.4025722 -0.6523725 -0.6523725 -0.3600019 -0.22594653 -0.22594653 -0.34590083 0.4173941 0.08501004 0.09098075 0.09098075 0.15399118 0.16018254 0.16682172 0.1657078 0.16653475 0.11723639 0.11723639 0.11723639

>  <experimental dG reference units>  (4) 
uM

>  <experimental dG reference field>  (4) 
IC50[uM](SPA)

>  <kJ/mol experimental dG>  (4) 
-43.56430378634755

>  <kcal/mol experimental dG>  (4) 
-10.412118495780962

$$$$
30
     RDKit          3D

 31 32  0  0  0  0  0  0  0  0999 V2000
   27.5485    0.3136  -11.5391 Cl  0  0  0  0  0  0  0  0  0  0  0  0
   24.8372   -0.0289  -11.4983 C   0  0  0  0  0  0  0  0  0  0  0  0
   26.0452   -0.2007  -10.8100 C   0  0  0  0  0  0  0  0  0  0  0  0
   26.0339   -0.7721   -9.5247 C   0  0  0  0  0  0  0  0  0  0  0  0
   24.8128   -1.0812   -8.9236 C   0  0  0  0  0  0  0  0  0  0  0  0
   23.6194   -0.9276   -9.6191 C   0  0  0  0  0  0  0  0  0  0  0  0
   23.6217   -0.4318  -10.9248 C   0  0  0  0  0  0  0  0  0  0  0  0
   22.4810   -0.3037  -11.6892 O   0  0  0  0  0  0  0  0  0  0  0  0
   21.2399   -0.5885  -11.1701 C   0  0  0  0  0  0  0  0  0  0  0  0
   20.6662   -1.8374  -11.3902 C   0  0  0  0  0  0  0  0  0  0  0  0
   19.4091   -2.1170  -10.8684 C   0  0  0  0  0  0  0  0  0  0  0  0
   18.8393   -3.3237  -11.0680 F   0  0  0  0  0  0  0  0  0  0  0  0
   18.7264   -1.1511  -10.1393 C   0  0  0  0  0  0  0  0  0  0  0  0
   19.2825    0.1244   -9.9582 C   0  0  0  0  0  0  0  0  0  0  0  0
   18.5614    1.1690   -9.2489 C   0  0  0  0  0  0  0  0  0  0  0  0
   20.5500    0.3803  -10.4464 C   0  0  0  0  0  0  0  0  0  0  0  0
   27.5166   -1.0965   -8.5685 S   0  0  0  0  0  6  0  0  0  0  0  0
   27.1757   -2.0254   -7.4877 O   0  0  0  0  0  0  0  0  0  0  0  0
   28.5973   -1.4633   -9.4875 O   0  0  0  0  0  0  0  0  0  0  0  0
   27.8897    0.6007   -7.8518 C   0  0  0  0  0  0  0  0  0  0  0  0
   27.7354    1.5229   -8.8032 F   0  0  0  0  0  0  0  0  0  0  0  0
   27.0123    0.7944   -6.8835 F   0  0  0  0  0  0  0  0  0  0  0  0
   24.8330    0.6084  -12.8132 C   0  0  0  0  0  0  0  0  0  0  0  0
   24.8420    1.1182  -13.8525 N   0  0  0  0  0  0  0  0  0  0  0  0
   18.0078    2.0075   -8.6709 N   0  0  0  0  0  0  0  0  0  0  0  0
   24.7836   -1.4731   -7.9183 H   0  0  0  0  0  0  0  0  0  0  0  0
   22.6985   -1.2282   -9.1371 H   0  0  0  0  0  0  0  0  0  0  0  0
   21.1987   -2.5965  -11.9433 H   0  0  0  0  0  0  0  0  0  0  0  0
   17.7864   -1.4317   -9.6991 H   0  0  0  0  0  0  0  0  0  0  0  0
   21.0075    1.3441  -10.2726 H   0  0  0  0  0  0  0  0  0  0  0  0
   28.8873    0.6401   -7.4156 H   0  0  0  0  0  0  0  0  0  0  0  0
  1  3  1  0
  2  3  2  0
  2  7  1  0
  2 23  1  0
  3  4  1  0
  4  5  2  0
  4 17  1  0
  5  6  1  0
  5 26  1  0
  6  7  2  0
  6 27  1  0
  7  8  1  0
  8  9  1  0
  9 10  2  0
  9 16  1  0
 10 11  1  0
 10 28  1  0
 11 12  1  0
 11 13  2  0
 13 14  1  0
 13 29  1  0
 14 15  1  0
 14 16  2  0
 15 25  3  0
 16 30  1  0
 17 18  2  0
 17 19  2  0
 17 20  1  0
 20 21  1  0
 20 22  1  0
 20 31  1  0
 23 24  3  0
M  END
>  <ID>  (5) 
30

>  <IC50[uM](SPA)>  (5) 
0.017999999999999999

>  <atom.dprop.PartialCharge>  (5) 
-0.018087443 -0.07120025 0.18259317 -0.4444548 0.01255497 -0.18929748 0.24339612 -0.23003724 0.12196917 -0.16953115 0.15036452 -0.1287582 -0.14622404 0.041821368 0.23176607 -0.1113105 1.3362314 -0.60909617 -0.60909617 0.32771033 -0.22316861 -0.22316861 0.26367298 -0.3288139 -0.33932564 0.17114681 0.1719466 0.17067719 0.1704695 0.16735817 0.077892214

>  <experimental dG reference units>  (5) 
uM

>  <experimental dG reference field>  (5) 
IC50[uM](SPA)

>  <kJ/mol experimental dG>  (5) 
-44.48153932852652

>  <kcal/mol experimental dG>  (5) 
-10.631343051751081

$$$$
1
     RDKit          3D

 37 39  0  0  0  0  0  0  0  0999 V2000
   27.5742    1.5579  -11.2202 O   0  0  0  0  0  0  0  0  0  0  0  0
   27.1479    0.2994  -11.6692 C   0  0  2  0  0  0  0  0  0  0  0  0
   26.5267    0.4129  -13.0689 C   0  0  0  0  0  0  0  0  0  0  0  0
   25.0255    0.5956  -12.8327 C   0  0  0  0  0  0  0  0  0  0  0  0
   24.8103   -0.0581  -11.4965 C   0  0  0  0  0  0  0  0  0  0  0  0
   26.0181   -0.2298  -10.8141 C   0  0  0  0  0  0  0  0  0  0  0  0
   26.0198   -0.7704   -9.5145 C   0  0  0  0  0  0  0  0  0  0  0  0
   24.8035   -1.0882   -8.9011 C   0  0  0  0  0  0  0  0  0  0  0  0
   23.6009   -0.9385   -9.5957 C   0  0  0  0  0  0  0  0  0  0  0  0
   23.6036   -0.4366  -10.9003 C   0  0  0  0  0  0  0  0  0  0  0  0
   22.4827   -0.2805  -11.6905 O   0  0  0  0  0  0  0  0  0  0  0  0
   21.2459   -0.5698  -11.1900 C   0  0  0  0  0  0  0  0  0  0  0  0
   20.6773   -1.8289  -11.4014 C   0  0  0  0  0  0  0  0  0  0  0  0
   19.4177   -2.1113  -10.8689 C   0  0  0  0  0  0  0  0  0  0  0  0
   18.8580   -3.3210  -11.0596 F   0  0  0  0  0  0  0  0  0  0  0  0
   18.7347   -1.1397  -10.1326 C   0  0  0  0  0  0  0  0  0  0  0  0
   19.2914    0.1220   -9.9508 C   0  0  0  0  0  0  0  0  0  0  0  0
   18.4240    1.3427   -9.0840 Cl  0  0  0  0  0  0  0  0  0  0  0  0
   20.5582    0.4039  -10.4599 C   0  0  0  0  0  0  0  0  0  0  0  0
   27.5319   -1.0654   -8.5874 S   0  0  0  0  0  6  0  0  0  0  0  0
   27.2277   -2.0226   -7.5192 O   0  0  0  0  0  0  0  0  0  0  0  0
   28.5861   -1.3956   -9.5458 O   0  0  0  0  0  0  0  0  0  0  0  0
   27.9385    0.6243   -7.8274 C   0  0  0  0  0  0  0  0  0  0  0  0
   27.8181    1.5522   -8.7360 F   0  0  0  0  0  0  0  0  0  0  0  0
   27.1029    0.8106   -6.7934 F   0  0  0  0  0  0  0  0  0  0  0  0
   28.3584    1.8102  -11.7281 H   0  0  0  0  0  0  0  0  0  0  0  0
   27.9789   -0.4080  -11.7029 H   0  0  0  0  0  0  0  0  0  0  0  0
   26.6995   -0.5291  -13.6482 H   0  0  0  0  0  0  0  0  0  0  0  0
   26.9532    1.2021  -13.6359 H   0  0  0  0  0  0  0  0  0  0  0  0
   24.7973    1.6781  -12.7806 H   0  0  0  0  0  0  0  0  0  0  0  0
   24.4358    0.1715  -13.6220 H   0  0  0  0  0  0  0  0  0  0  0  0
   24.7794   -1.4657   -7.8911 H   0  0  0  0  0  0  0  0  0  0  0  0
   22.6812   -1.2310   -9.1144 H   0  0  0  0  0  0  0  0  0  0  0  0
   21.2080   -2.5850  -11.9555 H   0  0  0  0  0  0  0  0  0  0  0  0
   17.7898   -1.3917   -9.6972 H   0  0  0  0  0  0  0  0  0  0  0  0
   20.9983    1.3636  -10.2576 H   0  0  0  0  0  0  0  0  0  0  0  0
   28.9678    0.5905   -7.4583 H   0  0  0  0  0  0  0  0  0  0  0  0
  1  2  1  0
  1 26  1  0
  2  3  1  0
  2  6  1  0
  2 27  1  6
  3  4  1  0
  3 28  1  0
  3 29  1  0
  4  5  1  0
  4 30  1  0
  4 31  1  0
  5  6  2  0
  5 10  1  0
  6  7  1  0
  7  8  2  0
  7 20  1  0
  8  9  1  0
  8 32  1  0
  9 10  2  0
  9 33  1  0
 10 11  1  0
 11 12  1  0
 12 13  2  0
 12 19  1  0
 13 14  1  0
 13 34  1  0
 14 15  1  0
 14 16  2  0
 16 17  1  0
 16 35  1  0
 17 18  1  0
 17 19  2  0
 19 36  1  0
 20 21  2  0
 20 22  2  0
 20 23  1  0
 23 24  1  0
 23 25  1  0
 23 37  1  0
M  END
>  <ID>  (6) 
1

>  <IC50[uM](SPA)>  (6) 
0.0050000000000000001

>  <atom.dprop.PartialCharge>  (6) 
-0.5751627 0.18908487 -0.116837636 -0.013573248 -0.10410297 0.06350878 -0.37149817 -0.020808533 -0.15902336 0.18651512 -0.25883064 0.12689756 -0.18070525 0.15979096 -0.13216473 -0.17582 0.065554045 -0.07748751 -0.15337446 1.3258839 -0.6206613 -0.6206613 0.31685168 -0.22538695 -0.22538695 0.40875363 0.06349217 0.056259118 0.056259118 0.061988354 0.061988354 0.1491117 0.1606485 0.16928682 0.16795892 0.16658254 0.07506944

>  <experimental dG reference units>  (6) 
uM

>  <experimental dG reference field>  (6) 
IC50[uM](SPA)

>  <kJ/mol experimental dG>  (6) 
-47.67664097448416

>  <kcal/mol experimental dG>  (6) 
-11.394990672677858

$$$$
237
     RDKit          3D

 38 40  0  0  0  0  0  0  0  0999 V2000
   27.8741   -0.4334  -11.8881 O   0  0  0  0  0  0  0  0  0  0  0  0
   26.9533    0.5103  -11.4691 C   0  0  1  0  0  0  0  0  0  0  0  0
   26.2123    1.1350  -12.6505 C   0  0  0  0  0  0  0  0  0  0  0  0
   24.8814    0.4428  -12.7971 C   0  0  0  0  0  0  0  0  0  0  0  0
   24.6562   -0.1013  -11.4106 C   0  0  0  0  0  0  0  0  0  0  0  0
   25.8419   -0.1153  -10.6575 C   0  0  0  0  0  0  0  0  0  0  0  0
   25.8608   -0.7137   -9.3921 C   0  0  0  0  0  0  0  0  0  0  0  0
   24.6666   -1.1821   -8.8556 C   0  0  0  0  0  0  0  0  0  0  0  0
   23.4957   -1.1640   -9.6018 C   0  0  0  0  0  0  0  0  0  0  0  0
   23.4866   -0.6454  -10.8961 C   0  0  0  0  0  0  0  0  0  0  0  0
   22.3959   -0.6294  -11.7424 O   0  0  0  0  0  0  0  0  0  0  0  0
   21.1512   -0.8062  -11.2113 C   0  0  0  0  0  0  0  0  0  0  0  0
   20.5139   -2.0346  -11.3575 C   0  0  0  0  0  0  0  0  0  0  0  0
   19.2861   -2.2462  -10.7434 C   0  0  0  0  0  0  0  0  0  0  0  0
   18.6869   -1.2275   -9.9984 C   0  0  0  0  0  0  0  0  0  0  0  0
   19.2935    0.0276   -9.9139 C   0  0  0  0  0  0  0  0  0  0  0  0
   18.6677    1.1330   -9.2217 C   0  0  0  0  0  0  0  0  0  0  0  0
   20.5431    0.2205  -10.5011 C   0  0  0  0  0  0  0  0  0  0  0  0
   27.3544   -0.9316   -8.4201 S   0  0  0  0  0  6  0  0  0  0  0  0
   27.0859   -2.0306   -7.4835 O   0  0  0  0  0  0  0  0  0  0  0  0
   28.5108   -1.0162   -9.3142 O   0  0  0  0  0  0  0  0  0  0  0  0
   27.4424    0.7020   -7.4764 C   0  0  0  0  0  0  0  0  0  0  0  0
   25.9408    2.3663  -12.2653 F   0  0  0  0  0  0  0  0  0  0  0  0
   26.9134    1.1664  -13.7919 F   0  0  0  0  0  0  0  0  0  0  0  0
   18.1713    2.0136   -8.6640 N   0  0  0  0  0  0  0  0  0  0  0  0
   27.4016    1.6993   -8.3556 F   0  0  0  0  0  0  0  0  0  0  0  0
   26.4012    0.7578   -6.6504 F   0  0  0  0  0  0  0  0  0  0  0  0
   18.6855   -3.4418  -10.8633 F   0  0  0  0  0  0  0  0  0  0  0  0
   28.6720    0.0152  -12.1950 H   0  0  0  0  0  0  0  0  0  0  0  0
   27.5009    1.2650  -10.9032 H   0  0  0  0  0  0  0  0  0  0  0  0
   24.9483   -0.3583  -13.5290 H   0  0  0  0  0  0  0  0  0  0  0  0
   24.0975    1.1265  -13.1204 H   0  0  0  0  0  0  0  0  0  0  0  0
   24.6404   -1.6102   -7.8694 H   0  0  0  0  0  0  0  0  0  0  0  0
   22.6040   -1.6081   -9.1858 H   0  0  0  0  0  0  0  0  0  0  0  0
   20.9886   -2.8350  -11.8914 H   0  0  0  0  0  0  0  0  0  0  0  0
   17.7800   -1.4545   -9.4636 H   0  0  0  0  0  0  0  0  0  0  0  0
   21.0611    1.1592  -10.3869 H   0  0  0  0  0  0  0  0  0  0  0  0
   28.3614    0.7441   -6.8868 H   0  0  0  0  0  0  0  0  0  0  0  0
  1  2  1  0
  1 29  1  0
  2  3  1  0
  2  6  1  0
  2 30  1  1
  3  4  1  0
  3 23  1  0
  3 24  1  0
  4  5  1  0
  4 31  1  0
  4 32  1  0
  5  6  2  0
  5 10  1  0
  6  7  1  0
  7  8  2  0
  7 19  1  0
  8  9  1  0
  8 33  1  0
  9 10  2  0
  9 34  1  0
 10 11  1  0
 11 12  1  0
 12 13  2  0
 12 18  1  0
 13 14  1  0
 13 35  1  0
 14 15  2  0
 14 28  1  0
 15 16  1  0
 15 36  1  0
 16 17  1  0
 16 18  2  0
 17 25  3  0
 18 37  1  0
 19 20  2  0
 19 21  2  0
 19 22  1  0
 22 26  1  0
 22 27  1  0
 22 38  1  0
M  END
>  <ID>  (7) 
237

>  <IC50[uM](SPA)>  (7) 
0.10000000000000001

>  <atom.dprop.PartialCharge>  (7) 
-0.5617275 0.14850947 0.39972448 -0.053503163 -0.122825675 0.038730733 -0.37737322 -0.007828962 -0.16157073 0.1983105 -0.24803853 0.13068958 -0.180457 0.15064715 -0.14530589 0.042773187 0.23178382 -0.120731264 1.3308371 -0.61836046 -0.61836046 0.31843117 -0.22470416 -0.22470416 -0.33956772 -0.22399819 -0.22399819 -0.12884432 0.41863626 0.08775882 0.09222291 0.09222291 0.15273248 0.16311748 0.1706139 0.17022741 0.16747221 0.07645793

>  <experimental dG reference units>  (7) 
uM

>  <experimental dG reference field>  (7) 
IC50[uM](SPA)

>  <kJ/mol experimental dG>  (7) 
-40.204226101545885

>  <kcal/mol experimental dG>  (7) 
-9.609040655245192

$$$$
227
     RDKit          3D

 38 40  0  0  0  0  0  0  0  0999 V2000
   27.8272    1.5641  -11.0613 O   0  0  0  0  0  0  0  0  0  0  0  0
   27.1196    0.5197  -11.7089 C   0  0  2  0  0  0  0  0  0  0  0  0
   26.4410    0.9322  -13.0322 C   0  0  1  0  0  0  0  0  0  0  0  0
   25.0569    0.3132  -13.0465 C   0  0  0  0  0  0  0  0  0  0  0  0
   24.8031   -0.0378  -11.5948 C   0  0  0  0  0  0  0  0  0  0  0  0
   25.9821   -0.0054  -10.8391 C   0  0  0  0  0  0  0  0  0  0  0  0
   25.9756   -0.4108   -9.4860 C   0  0  0  0  0  0  0  0  0  0  0  0
   24.7523   -0.7639   -8.9047 C   0  0  0  0  0  0  0  0  0  0  0  0
   23.5893   -0.8199   -9.6602 C   0  0  0  0  0  0  0  0  0  0  0  0
   23.6070   -0.4713  -11.0162 C   0  0  0  0  0  0  0  0  0  0  0  0
   22.5129   -0.5291  -11.8499 O   0  0  0  0  0  0  0  0  0  0  0  0
   21.2693   -0.7597  -11.3270 C   0  0  0  0  0  0  0  0  0  0  0  0
   20.6685   -2.0051  -11.4862 C   0  0  0  0  0  0  0  0  0  0  0  0
   19.4249   -2.2461  -10.9160 C   0  0  0  0  0  0  0  0  0  0  0  0
   18.8269   -3.4424  -11.0720 F   0  0  0  0  0  0  0  0  0  0  0  0
   18.7871   -1.2517  -10.1791 C   0  0  0  0  0  0  0  0  0  0  0  0
   19.3542    0.0199  -10.0730 C   0  0  0  0  0  0  0  0  0  0  0  0
   18.6860    1.1030   -9.3771 C   0  0  0  0  0  0  0  0  0  0  0  0
   20.6055    0.2435  -10.6245 C   0  0  0  0  0  0  0  0  0  0  0  0
   27.4540   -0.4504   -8.4410 S   0  0  0  0  0  6  0  0  0  0  0  0
   27.2130   -1.3677   -7.3228 O   0  0  0  0  0  0  0  0  0  0  0  0
   28.5784   -0.6917   -9.3508 O   0  0  0  0  0  0  0  0  0  0  0  0
   27.6740    1.2644   -7.6619 C   0  0  0  0  0  0  0  0  0  0  0  0
   26.2395    2.2465  -13.0641 F   0  0  0  0  0  0  0  0  0  0  0  0
   18.1663    1.9675   -8.8128 N   0  0  0  0  0  0  0  0  0  0  0  0
   27.2225    1.2103   -6.4199 F   0  0  0  0  0  0  0  0  0  0  0  0
   28.9768    1.5534   -7.6702 F   0  0  0  0  0  0  0  0  0  0  0  0
   27.0318    2.1940   -8.3234 F   0  0  0  0  0  0  0  0  0  0  0  0
   28.5149    1.9300  -11.6463 H   0  0  0  0  0  0  0  0  0  0  0  0
   27.8025   -0.3009  -11.9316 H   0  0  0  0  0  0  0  0  0  0  0  0
   27.0306    0.7186  -13.9241 H   0  0  0  0  0  0  0  0  0  0  0  0
   25.0758   -0.5870  -13.6585 H   0  0  0  0  0  0  0  0  0  0  0  0
   24.3018    0.9764  -13.4758 H   0  0  0  0  0  0  0  0  0  0  0  0
   24.6649   -1.0110   -7.8636 H   0  0  0  0  0  0  0  0  0  0  0  0
   22.6896   -1.1518   -9.1671 H   0  0  0  0  0  0  0  0  0  0  0  0
   21.1858   -2.7906  -12.0103 H   0  0  0  0  0  0  0  0  0  0  0  0
   17.8819   -1.5039   -9.6760 H   0  0  0  0  0  0  0  0  0  0  0  0
   21.0827    1.1859  -10.4602 H   0  0  0  0  0  0  0  0  0  0  0  0
  1  2  1  0
  1 29  1  0
  2  3  1  0
  2  6  1  0
  2 30  1  6
  3  4  1  0
  3 24  1  0
  3 31  1  6
  4  5  1  0
  4 32  1  0
  4 33  1  0
  5  6  2  0
  5 10  1  0
  6  7  1  0
  7  8  2  0
  7 20  1  0
  8  9  1  0
  8 34  1  0
  9 10  2  0
  9 35  1  0
 10 11  1  0
 11 12  1  0
 12 13  2  0
 12 19  1  0
 13 14  1  0
 13 36  1  0
 14 15  1  0
 14 16  2  0
 16 17  1  0
 16 37  1  0
 17 18  1  0
 17 19  2  0
 18 25  3  0
 19 38  1  0
 20 21  2  0
 20 22  2  0
 20 23  1  0
 23 26  1  0
 23 27  1  0
 23 28  1  0
M  END
>  <ID>  (8) 
227

>  <IC50[uM](SPA)>  (8) 
0.012999999999999999

>  <atom.dprop.PartialCharge>  (8) 
-0.56464905 0.17365429 0.12031956 -0.034544203 -0.10079246 0.056185756 -0.4079235 -0.008733299 -0.15037212 0.19294903 -0.24768692 0.12954985 -0.17989443 0.15120965 -0.12828174 -0.14474335 0.043335684 0.23234639 -0.12016873 1.3447849 -0.6030324 -0.6030324 0.5951655 -0.22216156 -0.33900517 -0.241356 -0.241356 -0.241356 0.41338512 0.07459214 0.073696144 0.078545325 0.078545325 0.14801525 0.16280851 0.17117646 0.17078996 0.16803476

>  <experimental dG reference units>  (8) 
uM

>  <experimental dG reference field>  (8) 
IC50[uM](SPA)

>  <kJ/mol experimental dG>  (8) 
-45.293257787636406

>  <kcal/mol experimental dG>  (8) 
-10.825348419607172

$$$$
266
     RDKit          3D

 40 43  0  0  0  0  0  0  0  0999 V2000
   27.8850    0.9567  -11.2360 O   0  0  0  0  0  0  0  0  0  0  0  0
   26.9261    0.0753  -11.8170 C   0  0  2  0  0  0  0  0  0  0  0  0
   26.2094    0.6442  -13.0561 C   0  0  0  0  0  0  0  0  0  0  0  0
   24.7392    0.3196  -12.9441 C   0  0  0  0  0  0  0  0  0  0  0  0
   24.5470   -0.0317  -11.5054 C   0  0  0  0  0  0  0  0  0  0  0  0
   25.7726   -0.2517  -10.8650 C   0  0  0  0  0  0  0  0  0  0  0  0
   25.7777   -0.7392   -9.5446 C   0  0  0  0  0  0  0  0  0  0  0  0
   24.5645   -0.9350   -8.8805 C   0  0  0  0  0  0  0  0  0  0  0  0
   23.3575   -0.7307   -9.5431 C   0  0  0  0  0  0  0  0  0  0  0  0
   23.3449   -0.3000  -10.8665 C   0  0  0  0  0  0  0  0  0  0  0  0
   22.1962   -0.0469  -11.5824 O   0  0  0  0  0  0  0  0  0  0  0  0
   21.0227   -0.6665  -11.2348 C   0  0  0  0  0  0  0  0  0  0  0  0
   20.7734   -2.0189  -11.4693 C   0  0  0  0  0  0  0  0  0  0  0  0
   19.5565   -2.5922  -11.1030 C   0  0  0  0  0  0  0  0  0  0  0  0
   18.5893   -1.8651  -10.4156 C   0  0  0  0  0  0  0  0  0  0  0  0
   18.8672   -0.5266  -10.1509 C   0  0  0  0  0  0  0  0  0  0  0  0
   20.0493    0.0994  -10.5813 C   0  0  0  0  0  0  0  0  0  0  0  0
   27.2967   -1.1713   -8.6869 S   0  0  0  0  0  6  0  0  0  0  0  0
   28.2927   -1.4686   -9.7151 O   0  0  0  0  0  0  0  0  0  0  0  0
   26.9743   -2.2137   -7.7071 O   0  0  0  0  0  0  0  0  0  0  0  0
   27.7762    0.4223   -7.7641 C   0  0  0  0  0  0  0  0  0  0  0  0
   26.6880    0.1745  -14.2084 F   0  0  0  0  0  0  0  0  0  0  0  0
   26.3100    1.9665  -13.0637 F   0  0  0  0  0  0  0  0  0  0  0  0
   27.0858    0.4659   -6.6244 F   0  0  0  0  0  0  0  0  0  0  0  0
   29.0853    0.3799   -7.5200 F   0  0  0  0  0  0  0  0  0  0  0  0
   27.4854    1.4761   -8.5193 F   0  0  0  0  0  0  0  0  0  0  0  0
   17.4363   -2.4330  -10.0129 F   0  0  0  0  0  0  0  0  0  0  0  0
   19.8832    1.4504  -10.1680 C   0  0  0  0  0  0  0  0  0  0  0  0
   18.7801    1.6341   -9.4994 N   0  0  0  0  0  0  0  0  0  0  0  0
   18.1820    0.4453   -9.4619 N   0  0  0  0  0  0  0  0  0  0  0  0
   28.4717    1.3190  -11.9120 H   0  0  0  0  0  0  0  0  0  0  0  0
   27.4183   -0.8521  -12.0998 H   0  0  0  0  0  0  0  0  0  0  0  0
   24.0911    1.1044  -13.3289 H   0  0  0  0  0  0  0  0  0  0  0  0
   24.5073   -0.5967  -13.4710 H   0  0  0  0  0  0  0  0  0  0  0  0
   24.5427   -1.2805   -7.8640 H   0  0  0  0  0  0  0  0  0  0  0  0
   22.4170   -0.9153   -9.0626 H   0  0  0  0  0  0  0  0  0  0  0  0
   21.5226   -2.6299  -11.9472 H   0  0  0  0  0  0  0  0  0  0  0  0
   19.3705   -3.6281  -11.3315 H   0  0  0  0  0  0  0  0  0  0  0  0
   20.5664    2.2737  -10.2644 H   0  0  0  0  0  0  0  0  0  0  0  0
   17.2735    0.3439   -9.0291 H   0  0  0  0  0  0  0  0  0  0  0  0
  1  2  1  0
  1 31  1  0
  2  3  1  0
  2  6  1  0
  2 32  1  6
  3  4  1  0
  3 22  1  0
  3 23  1  0
  4  5  1  0
  4 33  1  0
  4 34  1  0
  5  6  2  0
  5 10  1  0
  6  7  1  0
  7  8  2  0
  7 18  1  0
  8  9  1  0
  8 35  1  0
  9 10  2  0
  9 36  1  0
 10 11  1  0
 11 12  1  0
 12 13  2  0
 12 17  1  0
 13 14  1  0
 13 37  1  0
 14 15  2  0
 14 38  1  0
 15 16  1  0
 15 27  1  0
 16 17  2  0
 16 30  1  0
 17 28  1  0
 18 19  2  0
 18 20  2  0
 18 21  1  0
 21 24  1  0
 21 25  1  0
 21 26  1  0
 28 29  2  0
 28 39  1  0
 29 30  1  0
 30 40  1  0
M  END
>  <ID>  (9) 
266

>  <IC50[uM](SPA)>  (9) 
0.019

>  <atom.dprop.PartialCharge>  (9) 
-0.5598927 0.15126933 0.40036237 -0.05042118 -0.11832991 0.05288724 -0.41060606 0.0019357093 -0.15150659 0.19323416 -0.25523713 0.21120352 -0.18048179 -0.115315534 0.09610942 0.06540475 -0.23034471 1.347689 -0.60276514 -0.60276514 0.5951112 -0.22425532 -0.22425532 -0.24146983 -0.24146983 -0.24146983 -0.14051065 0.38156423 -0.39908555 -0.37713012 0.419085 0.08936645 0.092167296 0.092167296 0.1513992 0.16466957 0.15609308 0.15888743 0.06175839 0.48494798

>  <experimental dG reference units>  (9) 
uM

>  <experimental dG reference field>  (9) 
IC50[uM](SPA)

>  <kJ/mol experimental dG>  (9) 
-44.34667657329135

>  <kcal/mol experimental dG>  (9) 
-10.599110079658544

$$$$
206
     RDKit          3D

 41 43  0  0  0  0  0  0  0  0999 V2000
   27.8905    0.7814  -11.2833 O   0  0  0  0  0  0  0  0  0  0  0  0
   26.9193   -0.0282  -11.8984 C   0  0  2  0  0  0  0  0  0  0  0  0
   26.2553    0.6485  -13.1070 C   0  0  0  0  0  0  0  0  0  0  0  0
   24.7743    0.3619  -13.0634 C   0  0  0  0  0  0  0  0  0  0  0  0
   24.5513   -0.0833  -11.6435 C   0  0  0  0  0  0  0  0  0  0  0  0
   25.7571   -0.3137  -10.9611 C   0  0  0  0  0  0  0  0  0  0  0  0
   25.7304   -0.7838   -9.6350 C   0  0  0  0  0  0  0  0  0  0  0  0
   24.4955   -0.9388   -8.9991 C   0  0  0  0  0  0  0  0  0  0  0  0
   23.3088   -0.7555   -9.6942 C   0  0  0  0  0  0  0  0  0  0  0  0
   23.3376   -0.3678  -11.0366 C   0  0  0  0  0  0  0  0  0  0  0  0
   22.2312   -0.2289  -11.8473 O   0  0  0  0  0  0  0  0  0  0  0  0
   21.0019   -0.5424  -11.3497 C   0  0  0  0  0  0  0  0  0  0  0  0
   20.5026   -1.8363  -11.4599 C   0  0  0  0  0  0  0  0  0  0  0  0
   19.3111   -2.1637  -10.8207 C   0  0  0  0  0  0  0  0  0  0  0  0
   18.8034   -3.4051  -10.9256 F   0  0  0  0  0  0  0  0  0  0  0  0
   18.6360   -1.2092  -10.0655 C   0  0  0  0  0  0  0  0  0  0  0  0
   19.1032    0.1048  -10.0073 C   0  0  0  0  0  0  0  0  0  0  0  0
   18.4198    1.1400   -9.2611 C   0  0  0  0  0  0  0  0  0  0  0  0
   20.2891    0.4299  -10.6551 C   0  0  0  0  0  0  0  0  0  0  0  0
   27.1782   -1.3347   -8.7177 S   0  0  0  0  0  6  0  0  0  0  0  0
   26.7390   -2.4320   -7.8613 O   0  0  0  0  0  0  0  0  0  0  0  0
   28.2843   -1.5524   -9.6512 O   0  0  0  0  0  0  0  0  0  0  0  0
   27.6153    0.0506   -7.5323 C   0  0  0  0  0  0  0  0  0  0  0  0
   26.3933    1.9664  -13.0190 F   0  0  0  0  0  0  0  0  0  0  0  0
   26.7651    0.2478  -14.2653 F   0  0  0  0  0  0  0  0  0  0  0  0
   17.8859    1.9702   -8.6637 N   0  0  0  0  0  0  0  0  0  0  0  0
   28.2838    1.1998   -8.2640 C   0  0  0  0  0  0  0  0  0  0  0  0
   28.4344    1.2213  -11.9476 H   0  0  0  0  0  0  0  0  0  0  0  0
   27.3623   -0.9733  -12.2077 H   0  0  0  0  0  0  0  0  0  0  0  0
   24.5370   -0.4389  -13.7581 H   0  0  0  0  0  0  0  0  0  0  0  0
   24.1815    1.2313  -13.3494 H   0  0  0  0  0  0  0  0  0  0  0  0
   24.4471   -1.2650   -7.9726 H   0  0  0  0  0  0  0  0  0  0  0  0
   22.3722   -0.9488   -9.1964 H   0  0  0  0  0  0  0  0  0  0  0  0
   21.0600   -2.5906  -11.9949 H   0  0  0  0  0  0  0  0  0  0  0  0
   17.7638   -1.5211   -9.5283 H   0  0  0  0  0  0  0  0  0  0  0  0
   20.6808    1.4261  -10.5650 H   0  0  0  0  0  0  0  0  0  0  0  0
   26.6995    0.3531   -7.0244 H   0  0  0  0  0  0  0  0  0  0  0  0
   28.2860   -0.3848   -6.7955 H   0  0  0  0  0  0  0  0  0  0  0  0
   28.6278    1.9639   -7.5645 H   0  0  0  0  0  0  0  0  0  0  0  0
   27.5819    1.6805   -8.9401 H   0  0  0  0  0  0  0  0  0  0  0  0
   29.1450    0.8679   -8.8468 H   0  0  0  0  0  0  0  0  0  0  0  0
  1  2  1  0
  1 28  1  0
  2  3  1  0
  2  6  1  0
  2 29  1  6
  3  4  1  0
  3 24  1  0
  3 25  1  0
  4  5  1  0
  4 30  1  0
  4 31  1  0
  5  6  2  0
  5 10  1  0
  6  7  1  0
  7  8  2  0
  7 20  1  0
  8  9  1  0
  8 32  1  0
  9 10  2  0
  9 33  1  0
 10 11  1  0
 11 12  1  0
 12 13  2  0
 12 19  1  0
 13 14  1  0
 13 34  1  0
 14 15  1  0
 14 16  2  0
 16 17  1  0
 16 35  1  0
 17 18  1  0
 17 19  2  0
 18 26  3  0
 19 36  1  0
 20 21  2  0
 20 22  2  0
 20 23  1  0
 23 27  1  0
 23 37  1  0
 23 38  1  0
 27 39  1  0
 27 40  1  0
 27 41  1  0
M  END
>  <ID>  (10) 
206

>  <IC50[uM](SPA)>  (10) 
0.037999999999999999

>  <atom.dprop.PartialCharge>  (10) 
-0.5646701 0.14495425 0.3966148 -0.057156745 -0.12748867 0.018989116 -0.34335878 -0.017503161 -0.17023334 0.18920079 -0.24927193 0.12945631 -0.18169042 0.14941385 -0.13007781 -0.14653927 0.041539885 0.23055035 -0.12196465 1.3858814 -0.6501523 -0.6501523 -0.30372572 -0.22593781 -0.22593781 -0.34080115 -0.06777063 0.41740283 0.08403379 0.09098947 0.09098947 0.15530406 0.15998524 0.16938047 0.16899396 0.16623878 0.11467972 0.11467972 0.051718134 0.051718134 0.051718134

>  <experimental dG reference units>  (10) 
uM

>  <experimental dG reference field>  (10) 
IC50[uM](SPA)

>  <kJ/mol experimental dG>  (10) 
-42.61772257200248

>  <kcal/mol experimental dG>  (10) 
-10.185880155832331

$$$$
67
     RDKit          3D

 32 34  0  0  0  0  0  0  0  0999 V2000
   27.6053    1.5453  -11.1389 O   0  0  0  0  0  0  0  0  0  0  0  0
   27.1460    0.3053  -11.6573 C   0  0  2  0  0  0  0  0  0  0  0  0
   26.5192    0.3788  -13.0582 C   0  0  0  0  0  0  0  0  0  0  0  0
   25.0264    0.5970  -12.8539 C   0  0  0  0  0  0  0  0  0  0  0  0
   24.7883   -0.0701  -11.5149 C   0  0  0  0  0  0  0  0  0  0  0  0
   25.9960   -0.2256  -10.8222 C   0  0  0  0  0  0  0  0  0  0  0  0
   26.0002   -0.7558   -9.5268 C   0  0  0  0  0  0  0  0  0  0  0  0
   24.7931   -1.0825   -8.9108 C   0  0  0  0  0  0  0  0  0  0  0  0
   23.5922   -0.9249   -9.5980 C   0  0  0  0  0  0  0  0  0  0  0  0
   23.5873   -0.4230  -10.9073 C   0  0  0  0  0  0  0  0  0  0  0  0
   22.4670   -0.2684  -11.6890 O   0  0  0  0  0  0  0  0  0  0  0  0
   21.2316   -0.5645  -11.1870 C   0  0  0  0  0  0  0  0  0  0  0  0
   20.5410    0.3964  -10.4526 C   0  0  0  0  0  0  0  0  0  0  0  0
   19.2824    0.1162   -9.9401 C   0  0  0  0  0  0  0  0  0  0  0  0
   18.6064    1.0626   -9.2523 F   0  0  0  0  0  0  0  0  0  0  0  0
   18.7355   -1.1452  -10.1366 C   0  0  0  0  0  0  0  0  0  0  0  0
   19.4128   -2.1057  -10.8754 C   0  0  0  0  0  0  0  0  0  0  0  0
   18.8450   -3.3093  -11.0745 F   0  0  0  0  0  0  0  0  0  0  0  0
   20.6682   -1.8203  -11.4037 C   0  0  0  0  0  0  0  0  0  0  0  0
   27.0666    1.3156  -13.8300 F   0  0  0  0  0  0  0  0  0  0  0  0
   26.6710   -0.8011  -13.6632 F   0  0  0  0  0  0  0  0  0  0  0  0
   27.2485   -0.9801   -8.8196 C   0  0  0  0  0  0  0  0  0  0  0  0
   28.2434   -1.1601   -8.2628 N   0  0  0  0  0  0  0  0  0  0  0  0
   28.3557    1.8615  -11.6733 H   0  0  0  0  0  0  0  0  0  0  0  0
   27.9699   -0.4119  -11.6750 H   0  0  0  0  0  0  0  0  0  0  0  0
   24.7968    1.6599  -12.7799 H   0  0  0  0  0  0  0  0  0  0  0  0
   24.4187    0.1942  -13.6651 H   0  0  0  0  0  0  0  0  0  0  0  0
   24.7714   -1.4809   -7.9067 H   0  0  0  0  0  0  0  0  0  0  0  0
   22.6829   -1.2318   -9.1072 H   0  0  0  0  0  0  0  0  0  0  0  0
   20.9775    1.3594  -10.2558 H   0  0  0  0  0  0  0  0  0  0  0  0
   17.7995   -1.4050   -9.6932 H   0  0  0  0  0  0  0  0  0  0  0  0
   21.2054   -2.5816  -11.9461 H   0  0  0  0  0  0  0  0  0  0  0  0
  1  2  1  0
  1 24  1  0
  2  3  1  0
  2  6  1  0
  2 25  1  6
  3  4  1  0
  3 20  1  0
  3 21  1  0
  4  5  1  0
  4 26  1  0
  4 27  1  0
  5  6  2  0
  5 10  1  0
  6  7  1  0
  7  8  2  0
  7 22  1  0
  8  9  1  0
  8 28  1  0
  9 10  2  0
  9 29  1  0
 10 11  1  0
 11 12  1  0
 12 13  2  0
 12 19  1  0
 13 14  1  0
 13 30  1  0
 14 15  1  0
 14 16  2  0
 16 17  1  0
 16 31  1  0
 17 18  1  0
 17 19  2  0
 19 32  1  0
 22 23  3  0
M  END
>  <ID>  (11) 
67

>  <IC50[uM](SPA)>  (11) 
0.035000000000000003

>  <atom.dprop.PartialCharge>  (11) 
-0.5624207 0.1521592 0.39808935 -0.060162507 -0.09445038 -0.044428784 -0.012755834 -0.07278373 -0.15517983 0.1588479 -0.253367 0.13800395 -0.19108668 0.17212747 -0.1329094 -0.2150491 0.17212747 -0.1329094 -0.19108668 -0.2267773 -0.2267773 0.2403499 -0.35151038 0.41574895 0.07849115 0.09309971 0.09309971 0.14488402 0.1598666 0.16823968 0.17028022 0.16823968

>  <experimental dG reference units>  (11) 
uM

>  <experimental dG reference field>  (11) 
IC50[uM](SPA)

>  <kJ/mol experimental dG>  (11) 
-42.82285344895467

>  <kcal/mol experimental dG>  (11) 
-10.234907612082855

$$$$
156
     RDKit          3D

 38 40  0  0  0  0  0  0  0  0999 V2000
   27.5805    1.5534  -11.2532 O   0  0  0  0  0  0  0  0  0  0  0  0
   27.1501    0.2775  -11.6687 C   0  0  2  0  0  0  0  0  0  0  0  0
   26.5293    0.4064  -13.0572 C   0  0  0  0  0  0  0  0  0  0  0  0
   25.0376    0.6062  -12.8261 C   0  0  0  0  0  0  0  0  0  0  0  0
   24.8055   -0.0621  -11.4896 C   0  0  0  0  0  0  0  0  0  0  0  0
   26.0115   -0.2357  -10.8045 C   0  0  0  0  0  0  0  0  0  0  0  0
   26.0133   -0.7776   -9.5085 C   0  0  0  0  0  0  0  0  0  0  0  0
   24.7953   -1.0889   -8.8985 C   0  0  0  0  0  0  0  0  0  0  0  0
   23.5968   -0.9351   -9.5925 C   0  0  0  0  0  0  0  0  0  0  0  0
   23.5998   -0.4290  -10.8992 C   0  0  0  0  0  0  0  0  0  0  0  0
   22.4856   -0.2941  -11.6969 O   0  0  0  0  0  0  0  0  0  0  0  0
   21.2434   -0.5785  -11.2009 C   0  0  0  0  0  0  0  0  0  0  0  0
   20.6719   -1.8357  -11.4023 C   0  0  0  0  0  0  0  0  0  0  0  0
   19.4175   -2.1171  -10.8625 C   0  0  0  0  0  0  0  0  0  0  0  0
   18.7315   -1.1381  -10.1404 C   0  0  0  0  0  0  0  0  0  0  0  0
   19.2888    0.1333   -9.9695 C   0  0  0  0  0  0  0  0  0  0  0  0
   18.5741    1.1692   -9.2318 C   0  0  0  0  0  0  0  0  0  0  0  0
   20.5530    0.4006  -10.4887 C   0  0  0  0  0  0  0  0  0  0  0  0
   27.5308   -1.0719   -8.5932 S   0  0  0  0  0  6  0  0  0  0  0  0
   27.2326   -2.0223   -7.5182 O   0  0  0  0  0  0  0  0  0  0  0  0
   28.5832   -1.4111   -9.5503 O   0  0  0  0  0  0  0  0  0  0  0  0
   27.9414    0.6033   -7.8192 C   0  0  0  0  0  0  0  0  0  0  0  0
   27.8101    1.5688   -8.7107 F   0  0  0  0  0  0  0  0  0  0  0  0
   27.0858    0.8173   -6.8182 F   0  0  0  0  0  0  0  0  0  0  0  0
   18.0126    1.9813   -8.6297 N   0  0  0  0  0  0  0  0  0  0  0  0
   28.3766    1.8137  -11.7472 H   0  0  0  0  0  0  0  0  0  0  0  0
   27.9769   -0.4329  -11.6977 H   0  0  0  0  0  0  0  0  0  0  0  0
   26.9654    1.2263  -13.6309 H   0  0  0  0  0  0  0  0  0  0  0  0
   26.6920   -0.5061  -13.6310 H   0  0  0  0  0  0  0  0  0  0  0  0
   24.4251    0.1733  -13.6149 H   0  0  0  0  0  0  0  0  0  0  0  0
   24.8057    1.6727  -12.7825 H   0  0  0  0  0  0  0  0  0  0  0  0
   24.7760   -1.4711   -7.8880 H   0  0  0  0  0  0  0  0  0  0  0  0
   22.6732   -1.2370   -9.1205 H   0  0  0  0  0  0  0  0  0  0  0  0
   21.2057   -2.5939  -11.9585 H   0  0  0  0  0  0  0  0  0  0  0  0
   18.9791   -3.0947  -11.0040 H   0  0  0  0  0  0  0  0  0  0  0  0
   17.7706   -1.3798   -9.7130 H   0  0  0  0  0  0  0  0  0  0  0  0
   21.0174    1.3656  -10.3389 H   0  0  0  0  0  0  0  0  0  0  0  0
   28.9665    0.5981   -7.4687 H   0  0  0  0  0  0  0  0  0  0  0  0
  1  2  1  0
  1 26  1  0
  2  3  1  0
  2  6  1  0
  2 27  1  6
  3  4  1  0
  3 28  1  0
  3 29  1  0
  4  5  1  0
  4 30  1  0
  4 31  1  0
  5  6  2  0
  5 10  1  0
  6  7  1  0
  7  8  2  0
  7 19  1  0
  8  9  1  0
  8 32  1  0
  9 10  2  0
  9 33  1  0
 10 11  1  0
 11 12  1  0
 12 13  2  0
 12 18  1  0
 13 14  1  0
 13 34  1  0
 14 15  2  0
 14 35  1  0
 15 16  1  0
 15 36  1  0
 16 17  1  0
 16 18  2  0
 17 25  3  0
 18 37  1  0
 19 20  2  0
 19 21  2  0
 19 22  1  0
 22 23  1  0
 22 24  1  0
 22 38  1  0
M  END
>  <ID>  (12) 
156

>  <IC50[uM](SPA)>  (12) 
0.072999999999999995

>  <atom.dprop.PartialCharge>  (12) 
-0.5755994 0.18864831 -0.11727424 -0.0140098445 -0.10706488 0.06307219 -0.3719348 -0.021245126 -0.16168374 0.18759423 -0.25100365 0.104317695 -0.1418974 -0.11359418 -0.10269374 0.007770464 0.23619281 -0.10297622 1.3254474 -0.62109804 -0.62109804 0.3164151 -0.22582364 -0.22582364 -0.35444325 0.40831703 0.06305557 0.05582252 0.05582252 0.06155175 0.06155175 0.14867508 0.16021186 0.15412757 0.14428017 0.15138 0.16037709 0.07463283

>  <experimental dG reference units>  (12) 
uM

>  <experimental dG reference field>  (12) 
IC50[uM](SPA)

>  <kJ/mol experimental dG>  (12) 
-40.989225906493

>  <kcal/mol experimental dG>  (12) 
-9.796660111494502

$$$$
31
     RDKit          3D

 34 35  0  0  0  0  0  0  0  0999 V2000
   27.3687    0.2213  -11.4876 C   0  0  0  0  0  0  0  0  0  0  0  0
   24.8311   -0.0329  -11.4879 C   0  0  0  0  0  0  0  0  0  0  0  0
   26.0513   -0.2060  -10.8090 C   0  0  0  0  0  0  0  0  0  0  0  0
   26.0346   -0.7690   -9.5108 C   0  0  0  0  0  0  0  0  0  0  0  0
   24.8065   -1.0848   -8.9114 C   0  0  0  0  0  0  0  0  0  0  0  0
   23.6126   -0.9312   -9.6030 C   0  0  0  0  0  0  0  0  0  0  0  0
   23.6048   -0.4328  -10.9121 C   0  0  0  0  0  0  0  0  0  0  0  0
   22.4609   -0.3198  -11.6757 O   0  0  0  0  0  0  0  0  0  0  0  0
   21.2233   -0.5921  -11.1719 C   0  0  0  0  0  0  0  0  0  0  0  0
   20.6530   -1.8418  -11.3921 C   0  0  0  0  0  0  0  0  0  0  0  0
   19.3963   -2.1272  -10.8608 C   0  0  0  0  0  0  0  0  0  0  0  0
   18.7071   -1.1442  -10.1414 C   0  0  0  0  0  0  0  0  0  0  0  0
   19.2670    0.1229   -9.9620 C   0  0  0  0  0  0  0  0  0  0  0  0
   18.5714    1.1621   -9.2281 C   0  0  0  0  0  0  0  0  0  0  0  0
   20.5386    0.3929  -10.4709 C   0  0  0  0  0  0  0  0  0  0  0  0
   27.5350   -1.0864   -8.5576 S   0  0  0  0  0  6  0  0  0  0  0  0
   27.1968   -2.0245   -7.4788 O   0  0  0  0  0  0  0  0  0  0  0  0
   28.6157   -1.4679   -9.4665 O   0  0  0  0  0  0  0  0  0  0  0  0
   27.9318    0.6142   -7.8020 C   0  0  0  0  0  0  0  0  0  0  0  0
   27.7568    1.5787   -8.6983 F   0  0  0  0  0  0  0  0  0  0  0  0
   27.1155    0.8088   -6.7700 F   0  0  0  0  0  0  0  0  0  0  0  0
   24.8004    0.6001  -12.7879 C   0  0  0  0  0  0  0  0  0  0  0  0
   24.7996    1.1238  -13.8126 N   0  0  0  0  0  0  0  0  0  0  0  0
   18.0264    1.9917   -8.6305 N   0  0  0  0  0  0  0  0  0  0  0  0
   28.1184    0.5861  -10.8006 H   0  0  0  0  0  0  0  0  0  0  0  0
   27.2481    1.0576  -12.1796 H   0  0  0  0  0  0  0  0  0  0  0  0
   27.7954   -0.6318  -12.0131 H   0  0  0  0  0  0  0  0  0  0  0  0
   24.7776   -1.4910   -7.9124 H   0  0  0  0  0  0  0  0  0  0  0  0
   22.6867   -1.2338   -9.1282 H   0  0  0  0  0  0  0  0  0  0  0  0
   21.1960   -2.5887  -11.9550 H   0  0  0  0  0  0  0  0  0  0  0  0
   18.9723   -3.1105  -11.0023 H   0  0  0  0  0  0  0  0  0  0  0  0
   17.7461   -1.3892   -9.7168 H   0  0  0  0  0  0  0  0  0  0  0  0
   21.0038    1.3570  -10.3207 H   0  0  0  0  0  0  0  0  0  0  0  0
   28.9726    0.6087   -7.4924 H   0  0  0  0  0  0  0  0  0  0  0  0
  1  3  1  0
  1 25  1  0
  1 26  1  0
  1 27  1  0
  2  3  2  0
  2  7  1  0
  2 22  1  0
  3  4  1  0
  4  5  2  0
  4 16  1  0
  5  6  1  0
  5 28  1  0
  6  7  2  0
  6 29  1  0
  7  8  1  0
  8  9  1  0
  9 10  2  0
  9 15  1  0
 10 11  1  0
 10 30  1  0
 11 12  2  0
 11 31  1  0
 12 13  1  0
 12 32  1  0
 13 14  1  0
 13 15  2  0
 14 24  3  0
 15 33  1  0
 16 17  2  0
 16 18  2  0
 16 19  1  0
 19 20  1  0
 19 21  1  0
 19 34  1  0
 22 23  3  0
M  END
>  <ID>  (13) 
31

>  <IC50[uM](SPA)>  (13) 
0.33000000000000002

>  <atom.dprop.PartialCharge>  (13) 
-0.10169445 -0.07389349 0.13600686 -0.45787185 0.005224053 -0.18836573 0.23277147 -0.22732928 0.091166064 -0.13077821 -0.112375714 -0.10229415 0.0082126185 0.23729382 -0.09385924 1.3341118 -0.6150209 -0.6150209 0.3235647 -0.22465609 -0.22465609 0.24372244 -0.34739354 -0.35330862 0.07658319 0.07658319 0.07658319 0.1677818 0.16822329 0.15519191 0.14561662 0.15251464 0.16112822 0.07623841

>  <experimental dG reference units>  (13) 
uM

>  <experimental dG reference field>  (13) 
IC50[uM](SPA)

>  <kJ/mol experimental dG>  (13) 
-37.22616157645246

>  <kcal/mol experimental dG>  (13) 
-8.897266151159766

$$$$
289
     RDKit          3D

 38 40  0  0  0  0  0  0  0  0999 V2000
   27.9755    1.1669  -10.8324 O   0  0  0  0  0  0  0  0  0  0  0  0
   27.2390    0.1841  -11.5554 C   0  0  2  0  0  0  0  0  0  0  0  0
   26.5477    0.7660  -12.7999 C   0  0  1  0  0  0  0  0  0  0  0  0
   25.2049    0.0635  -12.9045 C   0  0  1  0  0  0  0  0  0  0  0  0
   24.8937   -0.3001  -11.4771 C   0  0  0  0  0  0  0  0  0  0  0  0
   26.0788   -0.3727  -10.7381 C   0  0  0  0  0  0  0  0  0  0  0  0
   26.0458   -0.8976   -9.4395 C   0  0  0  0  0  0  0  0  0  0  0  0
   24.8156   -1.2035   -8.8587 C   0  0  0  0  0  0  0  0  0  0  0  0
   23.6292   -1.0361   -9.5643 C   0  0  0  0  0  0  0  0  0  0  0  0
   23.6659   -0.6025  -10.8934 C   0  0  0  0  0  0  0  0  0  0  0  0
   22.5632   -0.4733  -11.7055 O   0  0  0  0  0  0  0  0  0  0  0  0
   21.3077   -0.7045  -11.2158 C   0  0  0  0  0  0  0  0  0  0  0  0
   20.6819   -1.9238  -11.4625 C   0  0  0  0  0  0  0  0  0  0  0  0
   19.4032   -2.1541  -10.9696 C   0  0  0  0  0  0  0  0  0  0  0  0
   18.7805   -3.3217  -11.2165 F   0  0  0  0  0  0  0  0  0  0  0  0
   18.7532   -1.1722  -10.2314 C   0  0  0  0  0  0  0  0  0  0  0  0
   19.3626    0.0638  -10.0081 C   0  0  0  0  0  0  0  0  0  0  0  0
   18.6843    1.1242   -9.2858 C   0  0  0  0  0  0  0  0  0  0  0  0
   20.6520    0.2828  -10.4822 C   0  0  0  0  0  0  0  0  0  0  0  0
   27.5268   -1.2129   -8.4905 S   0  0  0  0  0  6  0  0  0  0  0  0
   27.2281   -2.2833   -7.5336 O   0  0  0  0  0  0  0  0  0  0  0  0
   28.6527   -1.3615   -9.4143 O   0  0  0  0  0  0  0  0  0  0  0  0
   26.2783    2.0422  -12.5491 F   0  0  0  0  0  0  0  0  0  0  0  0
   18.1517    1.9670   -8.7031 N   0  0  0  0  0  0  0  0  0  0  0  0
   24.3119    0.8426  -13.5117 F   0  0  0  0  0  0  0  0  0  0  0  0
   27.7464    0.3832   -7.5445 C   0  0  0  0  0  0  0  0  0  0  0  0
   28.6278    1.5780  -11.4159 H   0  0  0  0  0  0  0  0  0  0  0  0
   27.8865   -0.6394  -11.8578 H   0  0  0  0  0  0  0  0  0  0  0  0
   27.1456    0.7501  -13.7119 H   0  0  0  0  0  0  0  0  0  0  0  0
   25.2774   -0.8290  -13.5267 H   0  0  0  0  0  0  0  0  0  0  0  0
   24.7771   -1.6047   -7.8636 H   0  0  0  0  0  0  0  0  0  0  0  0
   22.6940   -1.2991   -9.0913 H   0  0  0  0  0  0  0  0  0  0  0  0
   21.1919   -2.6924  -12.0201 H   0  0  0  0  0  0  0  0  0  0  0  0
   17.7867   -1.4057   -9.8300 H   0  0  0  0  0  0  0  0  0  0  0  0
   21.1501    1.2108  -10.2637 H   0  0  0  0  0  0  0  0  0  0  0  0
   28.7144    0.3301   -7.0642 H   0  0  0  0  0  0  0  0  0  0  0  0
   26.9498    0.4724   -6.8102 H   0  0  0  0  0  0  0  0  0  0  0  0
   27.7216    1.2218   -8.2383 H   0  0  0  0  0  0  0  0  0  0  0  0
  1  2  1  0
  1 27  1  0
  2  3  1  0
  2  6  1  0
  2 28  1  6
  3  4  1  0
  3 23  1  0
  3 29  1  6
  4  5  1  0
  4 25  1  0
  4 30  1  6
  5  6  2  0
  5 10  1  0
  6  7  1  0
  7  8  2  0
  7 20  1  0
  8  9  1  0
  8 31  1  0
  9 10  2  0
  9 32  1  0
 10 11  1  0
 11 12  1  0
 12 13  2  0
 12 19  1  0
 13 14  1  0
 13 33  1  0
 14 15  1  0
 14 16  2  0
 16 17  1  0
 16 34  1  0
 17 18  1  0
 17 19  2  0
 18 24  3  0
 19 35  1  0
 20 21  2  0
 20 22  2  0
 20 26  1  0
 26 36  1  0
 26 37  1  0
 26 38  1  0
M  END
>  <ID>  (14) 
289

>  <IC50[uM](SPA)>  (14) 
0.01

>  <atom.dprop.PartialCharge>  (14) 
-0.567111 0.16503903 0.11157875 0.22521013 -0.18585272 0.058919188 -0.35333604 -0.0085109435 -0.18023127 0.2193075 -0.25527284 0.12962693 -0.17807274 0.15058382 -0.12890767 -0.14536923 0.04270985 0.23172048 -0.11878026 1.4048982 -0.6516102 -0.6516102 -0.21964498 -0.33963108 -0.21865453 -0.35843807 0.41454583 0.071437865 0.07889849 0.07556352 0.15442222 0.16320258 0.17055055 0.17016406 0.16740887 0.11841525 0.11841525 0.11841525

>  <experimental dG reference units>  (14) 
uM

>  <experimental dG reference field>  (14) 
IC50[uM](SPA)

>  <kJ/mol experimental dG>  (14) 
-45.9476869731953

>  <kcal/mol experimental dG>  (14) 
-10.981760748851649

$$$$
61
     RDKit          3D

 37 39  0  0  0  0  0  0  0  0999 V2000
   27.6141    1.5314  -11.1645 O   0  0  0  0  0  0  0  0  0  0  0  0
   27.1537    0.2857  -11.6482 C   0  0  2  0  0  0  0  0  0  0  0  0
   26.5383    0.4235  -13.0455 C   0  0  0  0  0  0  0  0  0  0  0  0
   25.0405    0.6014  -12.8272 C   0  0  0  0  0  0  0  0  0  0  0  0
   24.8079   -0.0680  -11.4919 C   0  0  0  0  0  0  0  0  0  0  0  0
   26.0128   -0.2402  -10.8022 C   0  0  0  0  0  0  0  0  0  0  0  0
   26.0160   -0.7777   -9.5061 C   0  0  0  0  0  0  0  0  0  0  0  0
   24.7980   -1.0852   -8.8991 C   0  0  0  0  0  0  0  0  0  0  0  0
   23.6016   -0.9305   -9.5931 C   0  0  0  0  0  0  0  0  0  0  0  0
   23.6009   -0.4247  -10.8990 C   0  0  0  0  0  0  0  0  0  0  0  0
   22.4839   -0.2869  -11.6927 O   0  0  0  0  0  0  0  0  0  0  0  0
   21.2424   -0.5716  -11.1962 C   0  0  0  0  0  0  0  0  0  0  0  0
   20.6732   -1.8275  -11.4044 C   0  0  0  0  0  0  0  0  0  0  0  0
   19.4230   -2.1091  -10.8655 C   0  0  0  0  0  0  0  0  0  0  0  0
   18.8559   -3.3155  -11.0537 F   0  0  0  0  0  0  0  0  0  0  0  0
   18.7437   -1.1402  -10.1389 C   0  0  0  0  0  0  0  0  0  0  0  0
   19.2905    0.1241   -9.9552 C   0  0  0  0  0  0  0  0  0  0  0  0
   18.4313    1.3474   -9.0928 Cl  0  0  0  0  0  0  0  0  0  0  0  0
   20.5489    0.3957  -10.4700 C   0  0  0  0  0  0  0  0  0  0  0  0
   27.5325   -1.0709   -8.5888 S   0  0  0  0  0  6  0  0  0  0  0  0
   27.2354   -2.0179   -7.5103 O   0  0  0  0  0  0  0  0  0  0  0  0
   28.5854   -1.4059   -9.5449 O   0  0  0  0  0  0  0  0  0  0  0  0
   27.9315    0.6133   -7.8461 C   0  0  0  0  0  0  0  0  0  0  0  0
   27.0964    0.8246   -6.8331 F   0  0  0  0  0  0  0  0  0  0  0  0
   28.3683    1.8194  -11.7071 H   0  0  0  0  0  0  0  0  0  0  0  0
   27.9719   -0.4315  -11.7022 H   0  0  0  0  0  0  0  0  0  0  0  0
   26.6895   -0.4969  -13.6161 H   0  0  0  0  0  0  0  0  0  0  0  0
   26.9723    1.2325  -13.6362 H   0  0  0  0  0  0  0  0  0  0  0  0
   24.8029    1.6660  -12.7801 H   0  0  0  0  0  0  0  0  0  0  0  0
   24.4290    0.1742  -13.6223 H   0  0  0  0  0  0  0  0  0  0  0  0
   24.7779   -1.4665   -7.8901 H   0  0  0  0  0  0  0  0  0  0  0  0
   22.6843   -1.2383   -9.1176 H   0  0  0  0  0  0  0  0  0  0  0  0
   21.2051   -2.5890  -11.9516 H   0  0  0  0  0  0  0  0  0  0  0  0
   17.8031   -1.3878   -9.7030 H   0  0  0  0  0  0  0  0  0  0  0  0
   20.9911    1.3546  -10.2655 H   0  0  0  0  0  0  0  0  0  0  0  0
   28.9528    0.5965   -7.4752 H   0  0  0  0  0  0  0  0  0  0  0  0
   27.8095    1.3876   -8.6011 H   0  0  0  0  0  0  0  0  0  0  0  0
  1  2  1  0
  1 25  1  0
  2  3  1  0
  2  6  1  0
  2 26  1  6
  3  4  1  0
  3 27  1  0
  3 28  1  0
  4  5  1  0
  4 29  1  0
  4 30  1  0
  5  6  2  0
  5 10  1  0
  6  7  1  0
  7  8  2  0
  7 20  1  0
  8  9  1  0
  8 31  1  0
  9 10  2  0
  9 32  1  0
 10 11  1  0
 11 12  1  0
 12 13  2  0
 12 19  1  0
 13 14  1  0
 13 33  1  0
 14 15  1  0
 14 16  2  0
 16 17  1  0
 16 34  1  0
 17 18  1  0
 17 19  2  0
 19 35  1  0
 20 21  2  0
 20 22  2  0
 20 23  1  0
 23 24  1  0
 23 36  1  0
 23 37  1  0
M  END
>  <ID>  (15) 
61

>  <IC50[uM](SPA)>  (15) 
0.039

>  <atom.dprop.PartialCharge>  (15) 
-0.57691693 0.18919995 -0.1179658 -0.014745012 -0.10638265 0.053024877 -0.3574044 -0.02624096 -0.16391271 0.18278995 -0.25914723 0.12658101 -0.18102184 0.15947442 -0.13248134 -0.17613657 0.06523748 -0.07780412 -0.15369104 1.3750722 -0.6414783 -0.6414783 -0.01211125 -0.21307056 0.40843707 0.06249532 0.05594255 0.05594255 0.061671786 0.061671786 0.15040986 0.15961067 0.16897023 0.16764233 0.16626595 0.090774685 0.090774685

>  <experimental dG reference units>  (15) 
uM

>  <experimental dG reference field>  (15) 
IC50[uM](SPA)

>  <kJ/mol experimental dG>  (15) 
-42.552930530121756

>  <kcal/mol experimental dG>  (15) 
-10.170394486166767

$$$$
167
     RDKit          3D

 38 40  0  0  0  0  0  0  0  0999 V2000
   27.6174    1.5478  -11.1379 O   0  0  0  0  0  0  0  0  0  0  0  0
   27.1576    0.3016  -11.6549 C   0  0  2  0  0  0  0  0  0  0  0  0
   26.5229    0.3791  -13.0512 C   0  0  0  0  0  0  0  0  0  0  0  0
   25.0317    0.5852  -12.8454 C   0  0  0  0  0  0  0  0  0  0  0  0
   24.8099   -0.0815  -11.5012 C   0  0  0  0  0  0  0  0  0  0  0  0
   26.0230   -0.2460  -10.8113 C   0  0  0  0  0  0  0  0  0  0  0  0
   26.0229   -0.7786   -9.5060 C   0  0  0  0  0  0  0  0  0  0  0  0
   24.8037   -1.0879   -8.9007 C   0  0  0  0  0  0  0  0  0  0  0  0
   23.6089   -0.9192   -9.5831 C   0  0  0  0  0  0  0  0  0  0  0  0
   23.6054   -0.4269  -10.8974 C   0  0  0  0  0  0  0  0  0  0  0  0
   22.4927   -0.2591  -11.6812 O   0  0  0  0  0  0  0  0  0  0  0  0
   21.2585   -0.5430  -11.1867 C   0  0  0  0  0  0  0  0  0  0  0  0
   20.6891   -1.7973  -11.3987 C   0  0  0  0  0  0  0  0  0  0  0  0
   19.4288   -2.0656  -10.8661 C   0  0  0  0  0  0  0  0  0  0  0  0
   18.7466   -1.1093  -10.1294 C   0  0  0  0  0  0  0  0  0  0  0  0
   19.3039    0.1671   -9.9553 C   0  0  0  0  0  0  0  0  0  0  0  0
   18.5747    1.1946   -9.2462 C   0  0  0  0  0  0  0  0  0  0  0  0
   20.5607    0.4183  -10.4590 C   0  0  0  0  0  0  0  0  0  0  0  0
   27.5352   -1.0636   -8.5830 S   0  0  0  0  0  6  0  0  0  0  0  0
   27.2233   -2.0141   -7.4936 O   0  0  0  0  0  0  0  0  0  0  0  0
   28.5909   -1.3989   -9.5185 O   0  0  0  0  0  0  0  0  0  0  0  0
   27.9412    0.6140   -7.8295 C   0  0  0  0  0  0  0  0  0  0  0  0
   27.1179    0.8438   -6.8093 F   0  0  0  0  0  0  0  0  0  0  0  0
   18.0155    2.0188   -8.6719 N   0  0  0  0  0  0  0  0  0  0  0  0
   18.6828   -3.5869  -11.1124 Cl  0  0  0  0  0  0  0  0  0  0  0  0
   27.0640    1.3150  -13.8239 F   0  0  0  0  0  0  0  0  0  0  0  0
   26.6730   -0.7998  -13.6562 F   0  0  0  0  0  0  0  0  0  0  0  0
   28.3618    1.8681  -11.6713 H   0  0  0  0  0  0  0  0  0  0  0  0
   27.9828   -0.4090  -11.7192 H   0  0  0  0  0  0  0  0  0  0  0  0
   24.4208    0.1923  -13.6623 H   0  0  0  0  0  0  0  0  0  0  0  0
   24.7995    1.6472  -12.7681 H   0  0  0  0  0  0  0  0  0  0  0  0
   24.7791   -1.4880   -7.8979 H   0  0  0  0  0  0  0  0  0  0  0  0
   22.6949   -1.2250   -9.0991 H   0  0  0  0  0  0  0  0  0  0  0  0
   21.2136   -2.5719  -11.9366 H   0  0  0  0  0  0  0  0  0  0  0  0
   17.8151   -1.3988   -9.6937 H   0  0  0  0  0  0  0  0  0  0  0  0
   21.0174    1.3729  -10.2677 H   0  0  0  0  0  0  0  0  0  0  0  0
   28.9709    0.5746   -7.4730 H   0  0  0  0  0  0  0  0  0  0  0  0
   27.8363    1.3925   -8.5883 H   0  0  0  0  0  0  0  0  0  0  0  0
  1  2  1  0
  1 28  1  0
  2  3  1  0
  2  6  1  0
  2 29  1  6
  3  4  1  0
  3 26  1  0
  3 27  1  0
  4  5  1  0
  4 30  1  0
  4 31  1  0
  5  6  2  0
  5 10  1  0
  6  7  1  0
  7  8  2  0
  7 19  1  0
  8  9  1  0
  8 32  1  0
  9 10  2  0
  9 33  1  0
 10 11  1  0
 11 12  1  0
 12 13  2  0
 12 18  1  0
 13 14  1  0
 13 34  1  0
 14 15  2  0
 14 25  1  0
 15 16  1  0
 15 35  1  0
 16 17  1  0
 16 18  2  0
 17 24  3  0
 18 36  1  0
 19 20  2  0
 19 21  2  0
 19 22  1  0
 22 23  1  0
 22 37  1  0
 22 38  1  0
M  END
>  <ID>  (16) 
167

>  <IC50[uM](SPA)>  (16) 
0.014999999999999999

>  <atom.dprop.PartialCharge>  (16) 
-0.5629184 0.14557335 0.39841136 -0.05527998 -0.126526 0.029876558 -0.3620963 -0.014065694 -0.16724929 0.19347316 -0.24484414 0.11671658 -0.13509227 0.037041053 -0.10230568 0.021204371 0.23598418 -0.10615496 1.3767235 -0.6378474 -0.6378474 -0.0111796 -0.21176709 -0.34506053 -0.07422569 -0.22510609 -0.22510609 0.4182344 0.08625421 0.09182106 0.09182106 0.15385193 0.1619451 0.16766202 0.1665481 0.16737504 0.092077926 0.092077926

>  <experimental dG reference units>  (16) 
uM

>  <experimental dG reference field>  (16) 
IC50[uM](SPA)

>  <kJ/mol experimental dG>  (16) 
-44.93631371696951

>  <kcal/mol experimental dG>  (16) 
-10.740036739237453

$$$$
165
     RDKit          3D

 39 41  0  0  0  0  0  0  0  0999 V2000
   27.5836    1.5568  -11.1222 N   0  0  0  0  0  0  0  0  0  0  0  0
   27.1600    0.2656  -11.6609 C   0  0  2  0  0  0  0  0  0  0  0  0
   26.5184    0.3567  -13.0592 C   0  0  0  0  0  0  0  0  0  0  0  0
   25.0297    0.5910  -12.8413 C   0  0  0  0  0  0  0  0  0  0  0  0
   24.8052   -0.0654  -11.5002 C   0  0  0  0  0  0  0  0  0  0  0  0
   26.0146   -0.2437  -10.8064 C   0  0  0  0  0  0  0  0  0  0  0  0
   26.0168   -0.7770   -9.5128 C   0  0  0  0  0  0  0  0  0  0  0  0
   24.7994   -1.0910   -8.8981 C   0  0  0  0  0  0  0  0  0  0  0  0
   23.6068   -0.9245   -9.5924 C   0  0  0  0  0  0  0  0  0  0  0  0
   23.5979   -0.4259  -10.8920 C   0  0  0  0  0  0  0  0  0  0  0  0
   22.4815   -0.2804  -11.6866 O   0  0  0  0  0  0  0  0  0  0  0  0
   21.2483   -0.5736  -11.1926 C   0  0  0  0  0  0  0  0  0  0  0  0
   20.6741   -1.8286  -11.3993 C   0  0  0  0  0  0  0  0  0  0  0  0
   19.4240   -2.1099  -10.8753 C   0  0  0  0  0  0  0  0  0  0  0  0
   18.8513   -3.3170  -11.0668 F   0  0  0  0  0  0  0  0  0  0  0  0
   18.7373   -1.1448  -10.1406 C   0  0  0  0  0  0  0  0  0  0  0  0
   19.2884    0.1262   -9.9662 C   0  0  0  0  0  0  0  0  0  0  0  0
   18.5751    1.1667   -9.2345 C   0  0  0  0  0  0  0  0  0  0  0  0
   20.5446    0.3954  -10.4628 C   0  0  0  0  0  0  0  0  0  0  0  0
   27.5234   -1.0682   -8.5880 S   0  0  0  0  0  6  0  0  0  0  0  0
   27.2169   -1.9994   -7.4943 O   0  0  0  0  0  0  0  0  0  0  0  0
   28.5933   -1.3900   -9.5234 O   0  0  0  0  0  0  0  0  0  0  0  0
   27.9099    0.6030   -7.8462 C   0  0  0  0  0  0  0  0  0  0  0  0
   27.0617    1.2852  -13.8476 F   0  0  0  0  0  0  0  0  0  0  0  0
   26.6509   -0.8260  -13.6655 F   0  0  0  0  0  0  0  0  0  0  0  0
   18.0232    1.9902   -8.6670 N   0  0  0  0  0  0  0  0  0  0  0  0
   28.1780    1.3732  -10.3208 H   0  0  0  0  0  0  0  0  0  0  0  0
   28.2339    1.9505  -11.7936 H   0  0  0  0  0  0  0  0  0  0  0  0
   27.9972   -0.4377  -11.7205 H   0  0  0  0  0  0  0  0  0  0  0  0
   24.4163    0.1879  -13.6481 H   0  0  0  0  0  0  0  0  0  0  0  0
   24.8098    1.6549  -12.7768 H   0  0  0  0  0  0  0  0  0  0  0  0
   24.7791   -1.4892   -7.9000 H   0  0  0  0  0  0  0  0  0  0  0  0
   22.6845   -1.2350   -9.1033 H   0  0  0  0  0  0  0  0  0  0  0  0
   21.2126   -2.5935  -11.9444 H   0  0  0  0  0  0  0  0  0  0  0  0
   17.8017   -1.4265   -9.7043 H   0  0  0  0  0  0  0  0  0  0  0  0
   21.0067    1.3483  -10.2588 H   0  0  0  0  0  0  0  0  0  0  0  0
   28.8501    0.4838   -7.3200 H   0  0  0  0  0  0  0  0  0  0  0  0
   27.1027    0.8984   -7.1794 H   0  0  0  0  0  0  0  0  0  0  0  0
   28.0467    1.3492   -8.6202 H   0  0  0  0  0  0  0  0  0  0  0  0
  1  2  1  0
  1 27  1  0
  1 28  1  0
  2  3  1  0
  2  6  1  0
  2 29  1  6
  3  4  1  0
  3 24  1  0
  3 25  1  0
  4  5  1  0
  4 30  1  0
  4 31  1  0
  5  6  2  0
  5 10  1  0
  6  7  1  0
  7  8  2  0
  7 20  1  0
  8  9  1  0
  8 32  1  0
  9 10  2  0
  9 33  1  0
 10 11  1  0
 11 12  1  0
 12 13  2  0
 12 19  1  0
 13 14  1  0
 13 34  1  0
 14 15  1  0
 14 16  2  0
 16 17  1  0
 16 35  1  0
 17 18  1  0
 17 19  2  0
 18 26  3  0
 19 36  1  0
 20 21  2  0
 20 22  2  0
 20 23  1  0
 23 37  1  0
 23 38  1  0
 23 39  1  0
M  END
>  <ID>  (17) 
165

>  <IC50[uM](SPA)>  (17) 
0.17000000000000001

>  <atom.dprop.PartialCharge>  (17) 
-0.8935645 0.17776862 0.39664754 -0.063492894 -0.13373658 0.026645932 -0.35085446 -0.012948982 -0.17469466 0.19387883 -0.25025037 0.12844874 -0.18227778 0.14882655 -0.1306652 -0.14712659 0.040952586 0.22996297 -0.122551985 1.4034234 -0.6533191 -0.6533191 -0.36160958 -0.23079568 -0.23079568 -0.3413885 0.36804447 0.36804447 0.10618398 0.09034029 0.09034029 0.15152821 0.15940468 0.16879311 0.1684066 0.16565144 0.11669978 0.11669978 0.11669978

>  <experimental dG reference units>  (17) 
uM

>  <experimental dG reference field>  (17) 
IC50[uM](SPA)

>  <kJ/mol experimental dG>  (17) 
-38.88065173869596

>  <kcal/mol experimental dG>  (17) 
-9.292698790319301

$$$$
41
     RDKit          3D

 33 34  0  0  0  0  0  0  0  0999 V2000
   27.3160    0.2119  -11.5679 C   0  0  0  0  0  0  0  0  0  0  0  0
   24.8220   -0.0323  -11.5026 C   0  0  0  0  0  0  0  0  0  0  0  0
   26.0361   -0.2219  -10.8310 C   0  0  0  0  0  0  0  0  0  0  0  0
   26.0397   -0.7735   -9.5325 C   0  0  0  0  0  0  0  0  0  0  0  0
   24.8104   -1.0828   -8.9203 C   0  0  0  0  0  0  0  0  0  0  0  0
   23.6135   -0.9357   -9.6149 C   0  0  0  0  0  0  0  0  0  0  0  0
   23.6068   -0.4317  -10.9153 C   0  0  0  0  0  0  0  0  0  0  0  0
   22.4766   -0.2993  -11.6901 O   0  0  0  0  0  0  0  0  0  0  0  0
   21.2357   -0.5744  -11.1818 C   0  0  0  0  0  0  0  0  0  0  0  0
   20.6684   -1.8291  -11.3974 C   0  0  0  0  0  0  0  0  0  0  0  0
   19.4181   -2.1063  -10.8643 C   0  0  0  0  0  0  0  0  0  0  0  0
   18.7365   -1.1464  -10.1377 C   0  0  0  0  0  0  0  0  0  0  0  0
   19.2879    0.1264   -9.9486 C   0  0  0  0  0  0  0  0  0  0  0  0
   18.4235    1.3441   -9.0874 Cl  0  0  0  0  0  0  0  0  0  0  0  0
   20.5478    0.3920  -10.4587 C   0  0  0  0  0  0  0  0  0  0  0  0
   27.5365   -1.0750   -8.5540 S   0  0  0  0  0  6  0  0  0  0  0  0
   27.1819   -2.0141   -7.4668 O   0  0  0  0  0  0  0  0  0  0  0  0
   28.6395   -1.4886   -9.4342 O   0  0  0  0  0  0  0  0  0  0  0  0
   27.9537    0.5878   -7.7603 C   0  0  0  0  0  0  0  0  0  0  0  0
   27.8618    1.5770   -8.6716 F   0  0  0  0  0  0  0  0  0  0  0  0
   27.0945    0.8268   -6.7955 F   0  0  0  0  0  0  0  0  0  0  0  0
   24.7431    0.7028  -13.0772 Cl  0  0  0  0  0  0  0  0  0  0  0  0
   27.6785    1.5088  -11.1977 O   0  0  0  0  0  0  0  0  0  0  0  0
   18.8518   -3.3193  -11.0584 F   0  0  0  0  0  0  0  0  0  0  0  0
   28.1256   -0.4939  -11.4275 H   0  0  0  0  0  0  0  0  0  0  0  0
   27.1998    0.1919  -12.6248 H   0  0  0  0  0  0  0  0  0  0  0  0
   24.7747   -1.4609   -7.9094 H   0  0  0  0  0  0  0  0  0  0  0  0
   22.6917   -1.2340   -9.1288 H   0  0  0  0  0  0  0  0  0  0  0  0
   21.2039   -2.5877  -11.9510 H   0  0  0  0  0  0  0  0  0  0  0  0
   17.7946   -1.3928   -9.6999 H   0  0  0  0  0  0  0  0  0  0  0  0
   20.9897    1.3596  -10.2596 H   0  0  0  0  0  0  0  0  0  0  0  0
   28.9741    0.5773   -7.4253 H   0  0  0  0  0  0  0  0  0  0  0  0
   28.4604    1.8112  -11.7624 H   0  0  0  0  0  0  0  0  0  0  0  0
  1  3  1  0
  1 23  1  0
  1 25  1  0
  1 26  1  0
  2  3  2  0
  2  7  1  0
  2 22  1  0
  3  4  1  0
  4  5  2  0
  4 16  1  0
  5  6  1  0
  5 27  1  0
  6  7  2  0
  6 28  1  0
  7  8  1  0
  8  9  1  0
  9 10  2  0
  9 15  1  0
 10 11  1  0
 10 29  1  0
 11 12  2  0
 11 24  1  0
 12 13  1  0
 12 30  1  0
 13 14  1  0
 13 15  2  0
 15 31  1  0
 16 17  2  0
 16 18  2  0
 16 19  1  0
 19 20  1  0
 19 21  1  0
 19 32  1  0
 23 33  1  0
M  END
>  <ID>  (18) 
41

>  <IC50[uM](SPA)>  (18) 
0.067000000000000004

>  <atom.dprop.PartialCharge>  (18) 
0.15742983 -0.024553493 0.05150088 -0.40467525 -0.01651029 -0.14952596 0.1701082 -0.24049173 0.12794536 -0.17972171 0.16212608 -0.17592038 0.06763977 -0.07625948 -0.15173294 1.3291461 -0.6141271 -0.6141271 0.3230648 -0.22362062 -0.22362062 -0.0269262 -0.57857686 -0.13088521 0.05722595 0.05722595 0.16247362 0.16619843 0.16995922 0.1695126 0.16752644 0.07683298 0.41535848

>  <experimental dG reference units>  (18) 
uM

>  <experimental dG reference field>  (18) 
IC50[uM](SPA)

>  <kJ/mol experimental dG>  (18) 
-41.20315866682759

>  <kcal/mol experimental dG>  (18) 
-9.847791268362235

$$$$
7b
     RDKit          3D

 40 42  0  0  0  0  0  0  0  0999 V2000
   27.5013   -1.6332  -11.4637 O   0  0  0  0  0  0  0  0  0  0  0  0
   27.1568   -0.2839  -11.3999 C   0  0  1  0  0  0  0  0  0  0  0  0
   26.6886    0.3329  -12.7025 C   0  0  0  0  0  0  0  0  0  0  0  0
   25.1969    0.0379  -12.7689 C   0  0  1  0  0  0  0  0  0  0  0  0
   24.8105   -0.1505  -11.3108 C   0  0  0  0  0  0  0  0  0  0  0  0
   25.9592   -0.2656  -10.5261 C   0  0  0  0  0  0  0  0  0  0  0  0
   25.8971   -0.6307   -9.1854 C   0  0  0  0  0  0  0  0  0  0  0  0
   24.6408   -0.8548   -8.6218 C   0  0  0  0  0  0  0  0  0  0  0  0
   23.4840   -0.6750   -9.3761 C   0  0  0  0  0  0  0  0  0  0  0  0
   23.5563   -0.3395  -10.7327 C   0  0  0  0  0  0  0  0  0  0  0  0
   22.4601   -0.1883  -11.5559 O   0  0  0  0  0  0  0  0  0  0  0  0
   21.2105   -0.5483  -11.1220 C   0  0  0  0  0  0  0  0  0  0  0  0
   20.7413   -1.8392  -11.3555 C   0  0  0  0  0  0  0  0  0  0  0  0
   19.4788   -2.2099  -10.9043 C   0  0  0  0  0  0  0  0  0  0  0  0
   19.0081   -3.4457  -11.1600 F   0  0  0  0  0  0  0  0  0  0  0  0
   18.6981   -1.3070  -10.1890 C   0  0  0  0  0  0  0  0  0  0  0  0
   19.1613   -0.0124   -9.9545 C   0  0  0  0  0  0  0  0  0  0  0  0
   18.2132    1.1216   -9.0640 Cl  0  0  0  0  0  0  0  0  0  0  0  0
   20.4100    0.3677  -10.4377 C   0  0  0  0  0  0  0  0  0  0  0  0
   27.3936   -0.9854   -8.2325 S   0  0  0  0  0  6  0  0  0  0  0  0
   26.9547   -1.8191   -7.1140 O   0  0  0  0  0  0  0  0  0  0  0  0
   28.4729   -1.4925   -9.0809 O   0  0  0  0  0  0  0  0  0  0  0  0
   28.0024    0.7179   -7.6900 C   0  0  0  0  0  0  0  0  0  0  0  0
   28.1774    1.4774   -8.7679 F   0  0  0  0  0  0  0  0  0  0  0  0
   27.1642    1.2786   -6.8272 F   0  0  0  0  0  0  0  0  0  0  0  0
   24.4433    1.1364  -13.4936 C   0  0  0  0  0  0  0  0  0  0  0  0
   26.7744   -2.1461  -11.8362 H   0  0  0  0  0  0  0  0  0  0  0  0
   27.9807    0.3158  -11.0121 H   0  0  0  0  0  0  0  0  0  0  0  0
   26.8561    1.4115  -12.6450 H   0  0  0  0  0  0  0  0  0  0  0  0
   27.2249   -0.0134  -13.5849 H   0  0  0  0  0  0  0  0  0  0  0  0
   25.0496   -0.9005  -13.3053 H   0  0  0  0  0  0  0  0  0  0  0  0
   24.5542   -1.2332   -7.6122 H   0  0  0  0  0  0  0  0  0  0  0  0
   22.5271   -0.8333   -8.9186 H   0  0  0  0  0  0  0  0  0  0  0  0
   21.3595   -2.5583  -11.8687 H   0  0  0  0  0  0  0  0  0  0  0  0
   17.7450   -1.6335   -9.8144 H   0  0  0  0  0  0  0  0  0  0  0  0
   20.7599    1.3719  -10.2636 H   0  0  0  0  0  0  0  0  0  0  0  0
   28.9671    0.5600   -7.2227 H   0  0  0  0  0  0  0  0  0  0  0  0
   23.4853    0.7668  -13.8302 H   0  0  0  0  0  0  0  0  0  0  0  0
   24.9806    1.4869  -14.3669 H   0  0  0  0  0  0  0  0  0  0  0  0
   24.2853    1.9691  -12.8189 H   0  0  0  0  0  0  0  0  0  0  0  0
  1  2  1  0
  1 27  1  0
  2  3  1  0
  2  6  1  0
  2 28  1  1
  3  4  1  0
  3 29  1  0
  3 30  1  0
  4  5  1  0
  4 26  1  0
  4 31  1  6
  5  6  2  0
  5 10  1  0
  6  7  1  0
  7  8  2  0
  7 20  1  0
  8  9  1  0
  8 32  1  0
  9 10  2  0
  9 33  1  0
 10 11  1  0
 11 12  1  0
 12 13  2  0
 12 19  1  0
 13 14  1  0
 13 34  1  0
 14 15  1  0
 14 16  2  0
 16 17  1  0
 16 35  1  0
 17 18  1  0
 17 19  2  0
 19 36  1  0
 20 21  2  0
 20 22  2  0
 20 23  1  0
 23 24  1  0
 23 25  1  0
 23 37  1  0
 26 38  1  0
 26 39  1  0
 26 40  1  0
M  END
>  <ID>  (19) 
7b

>  <IC50[uM](SPA)>  (19) 
3.7999999999999998

>  <atom.dprop.PartialCharge>  (19) 
-0.5763778 0.19191892 -0.10800288 -0.0034300126 -0.10376085 0.049816743 -0.3678716 -0.021180175 -0.15949342 0.17759594 -0.25963783 0.12811911 -0.17998444 0.16010395 -0.1318517 -0.17550698 0.06586703 -0.077174485 -0.1526885 1.3257332 -0.6205349 -0.6205349 0.31742695 -0.2250739 -0.2250739 -0.08343746 0.40962797 0.06274449 0.05720824 0.05720824 0.06483212 0.1489706 0.16077968 0.16959982 0.16827193 0.16689554 0.07538244 0.044504248 0.044504248 0.044504248

>  <experimental dG reference units>  (19) 
uM

>  <experimental dG reference field>  (19) 
IC50[uM](SPA)

>  <kJ/mol experimental dG>  (19) 
-31.130800828703652

>  <kcal/mol experimental dG>  (19) 
-7.44043996861942

$$$$
54
     RDKit          3D

 36 37  0  0  0  0  0  0  0  0999 V2000
   27.3739    0.2021  -11.5257 C   0  0  0  0  0  0  0  0  0  0  0  0
   24.8166   -0.0727  -11.5403 C   0  0  0  0  0  0  0  0  0  0  0  0
   26.0692   -0.2356  -10.8548 C   0  0  0  0  0  0  0  0  0  0  0  0
   26.0425   -0.7765   -9.5491 C   0  0  0  0  0  0  0  0  0  0  0  0
   24.8317   -1.0884   -8.9403 C   0  0  0  0  0  0  0  0  0  0  0  0
   23.6267   -0.9347   -9.6164 C   0  0  0  0  0  0  0  0  0  0  0  0
   23.6229   -0.4433  -10.9232 C   0  0  0  0  0  0  0  0  0  0  0  0
   22.4601   -0.2995  -11.6659 O   0  0  0  0  0  0  0  0  0  0  0  0
   21.2313   -0.5849  -11.1558 C   0  0  0  0  0  0  0  0  0  0  0  0
   20.6536   -1.8315  -11.3749 C   0  0  0  0  0  0  0  0  0  0  0  0
   19.3870   -2.1109  -10.8587 C   0  0  0  0  0  0  0  0  0  0  0  0
   18.7018   -1.1325  -10.1312 C   0  0  0  0  0  0  0  0  0  0  0  0
   19.2617    0.1200   -9.9382 C   0  0  0  0  0  0  0  0  0  0  0  0
   18.4013    1.3488   -9.0779 Cl  0  0  0  0  0  0  0  0  0  0  0  0
   20.5319    0.3986  -10.4453 C   0  0  0  0  0  0  0  0  0  0  0  0
   27.5413   -1.0868   -8.5786 S   0  0  0  0  0  6  0  0  0  0  0  0
   27.1521   -2.0097   -7.4995 O   0  0  0  0  0  0  0  0  0  0  0  0
   27.9317    0.5862   -7.8045 C   0  0  0  0  0  0  0  0  0  0  0  0
   24.7489    0.5863  -12.9072 C   0  0  0  0  0  0  0  0  0  0  0  0
   18.8205   -3.3078  -11.0704 F   0  0  0  0  0  0  0  0  0  0  0  0
   28.6431   -1.4626   -9.4346 O   0  0  0  0  0  0  0  0  0  0  0  0
   27.8838    1.4066  -10.9877 O   0  0  0  0  0  0  0  0  0  0  0  0
   25.0512    1.8655  -12.6953 F   0  0  0  0  0  0  0  0  0  0  0  0
   25.5439    0.0623  -13.8379 F   0  0  0  0  0  0  0  0  0  0  0  0
   28.0990   -0.6021  -11.4607 H   0  0  0  0  0  0  0  0  0  0  0  0
   27.3066    0.3708  -12.5896 H   0  0  0  0  0  0  0  0  0  0  0  0
   24.7932   -1.4850   -7.9329 H   0  0  0  0  0  0  0  0  0  0  0  0
   22.7096   -1.2257   -9.1246 H   0  0  0  0  0  0  0  0  0  0  0  0
   21.1835   -2.5849  -11.9420 H   0  0  0  0  0  0  0  0  0  0  0  0
   17.7315   -1.3728   -9.7222 H   0  0  0  0  0  0  0  0  0  0  0  0
   20.9738    1.3666  -10.2947 H   0  0  0  0  0  0  0  0  0  0  0  0
   28.9058    0.4975   -7.3383 H   0  0  0  0  0  0  0  0  0  0  0  0
   27.1560    0.8615   -7.0926 H   0  0  0  0  0  0  0  0  0  0  0  0
   27.9947    1.3445   -8.5786 H   0  0  0  0  0  0  0  0  0  0  0  0
   23.7601    0.5443  -13.3706 H   0  0  0  0  0  0  0  0  0  0  0  0
   28.5336    1.7915  -11.6096 H   0  0  0  0  0  0  0  0  0  0  0  0
  1  3  1  0
  1 22  1  0
  1 25  1  0
  1 26  1  0
  2  3  2  0
  2  7  1  0
  2 19  1  0
  3  4  1  0
  4  5  2  0
  4 16  1  0
  5  6  1  0
  5 27  1  0
  6  7  2  0
  6 28  1  0
  7  8  1  0
  8  9  1  0
  9 10  2  0
  9 15  1  0
 10 11  1  0
 10 29  1  0
 11 12  2  0
 11 20  1  0
 12 13  1  0
 12 30  1  0
 13 14  1  0
 13 15  2  0
 15 31  1  0
 16 17  2  0
 16 18  1  0
 16 21  2  0
 18 32  1  0
 18 33  1  0
 18 34  1  0
 19 23  1  0
 19 24  1  0
 19 35  1  0
 22 36  1  0
M  END
>  <ID>  (20) 
54

>  <IC50[uM](SPA)>  (20) 
0.14999999999999999

>  <atom.dprop.PartialCharge>  (20) 
0.1516056 -0.1885802 0.052956823 -0.36014974 -0.02070592 -0.17812635 0.212396 -0.24221088 0.12215641 -0.1754631 0.15751667 -0.17810006 0.06278058 -0.078439325 -0.14842814 1.402338 -0.6509625 -0.36276084 0.4823994 -0.13306502 -0.6509625 -0.5779439 -0.23043516 -0.23043516 0.05242219 0.05242219 0.16338317 0.16302606 0.1675939 0.16733287 0.16485235 0.11531166 0.11531166 0.11531166 0.07054133 0.4151097

>  <experimental dG reference units>  (20) 
uM

>  <experimental dG reference field>  (20) 
IC50[uM](SPA)

>  <kJ/mol experimental dG>  (20) 
-39.19285284532009

>  <kcal/mol experimental dG>  (20) 
-9.367316645630996

$$$$
215
     RDKit          3D

 38 40  0  0  0  0  0  0  0  0999 V2000
   27.6091    1.5498  -11.1508 O   0  0  0  0  0  0  0  0  0  0  0  0
   27.1523    0.3007  -11.6520 C   0  0  2  0  0  0  0  0  0  0  0  0
   26.5179    0.3762  -13.0497 C   0  0  0  0  0  0  0  0  0  0  0  0
   25.0307    0.5974  -12.8369 C   0  0  0  0  0  0  0  0  0  0  0  0
   24.8058   -0.0760  -11.4979 C   0  0  0  0  0  0  0  0  0  0  0  0
   26.0140   -0.2422  -10.8075 C   0  0  0  0  0  0  0  0  0  0  0  0
   26.0179   -0.7821   -9.5113 C   0  0  0  0  0  0  0  0  0  0  0  0
   24.8010   -1.0892   -8.9002 C   0  0  0  0  0  0  0  0  0  0  0  0
   23.6017   -0.9289   -9.5882 C   0  0  0  0  0  0  0  0  0  0  0  0
   23.6015   -0.4265  -10.8963 C   0  0  0  0  0  0  0  0  0  0  0  0
   22.4844   -0.2813  -11.6858 O   0  0  0  0  0  0  0  0  0  0  0  0
   21.2443   -0.5742  -11.1910 C   0  0  0  0  0  0  0  0  0  0  0  0
   20.6757   -1.8294  -11.4027 C   0  0  0  0  0  0  0  0  0  0  0  0
   19.4222   -2.1115  -10.8707 C   0  0  0  0  0  0  0  0  0  0  0  0
   18.8538   -3.3158  -11.0650 F   0  0  0  0  0  0  0  0  0  0  0  0
   18.7401   -1.1454  -10.1430 C   0  0  0  0  0  0  0  0  0  0  0  0
   19.2855    0.1245   -9.9643 C   0  0  0  0  0  0  0  0  0  0  0  0
   18.5738    1.1651   -9.2478 C   0  0  0  0  0  0  0  0  0  0  0  0
   20.5517    0.3924  -10.4677 C   0  0  0  0  0  0  0  0  0  0  0  0
   27.5336   -1.0789   -8.5968 S   0  0  0  0  0  6  0  0  0  0  0  0
   27.2337   -2.0296   -7.5210 O   0  0  0  0  0  0  0  0  0  0  0  0
   28.5907   -1.4009   -9.5499 O   0  0  0  0  0  0  0  0  0  0  0  0
   27.9246    0.5996   -7.8590 C   0  0  0  0  0  0  0  0  0  0  0  0
   27.0644    1.3127  -13.8260 F   0  0  0  0  0  0  0  0  0  0  0  0
   26.6596   -0.8019  -13.6597 F   0  0  0  0  0  0  0  0  0  0  0  0
   18.0143    1.9955   -8.6715 N   0  0  0  0  0  0  0  0  0  0  0  0
   27.0855    0.7673   -6.3061 Cl  0  0  0  0  0  0  0  0  0  0  0  0
   28.3441    1.8680  -11.7060 H   0  0  0  0  0  0  0  0  0  0  0  0
   27.9773   -0.4094  -11.7093 H   0  0  0  0  0  0  0  0  0  0  0  0
   24.4193    0.1887  -13.6438 H   0  0  0  0  0  0  0  0  0  0  0  0
   24.8032    1.6619  -12.7725 H   0  0  0  0  0  0  0  0  0  0  0  0
   24.7795   -1.4796   -7.8938 H   0  0  0  0  0  0  0  0  0  0  0  0
   22.6896   -1.2331   -9.1081 H   0  0  0  0  0  0  0  0  0  0  0  0
   21.2108   -2.5926  -11.9445 H   0  0  0  0  0  0  0  0  0  0  0  0
   17.8042   -1.4221   -9.7064 H   0  0  0  0  0  0  0  0  0  0  0  0
   21.0078    1.3477  -10.2751 H   0  0  0  0  0  0  0  0  0  0  0  0
   28.9969    0.6434   -7.6857 H   0  0  0  0  0  0  0  0  0  0  0  0
   27.6251    1.3933   -8.5421 H   0  0  0  0  0  0  0  0  0  0  0  0
  1  2  1  0
  1 28  1  0
  2  3  1  0
  2  6  1  0
  2 29  1  6
  3  4  1  0
  3 24  1  0
  3 25  1  0
  4  5  1  0
  4 30  1  0
  4 31  1  0
  5  6  2  0
  5 10  1  0
  6  7  1  0
  7  8  2  0
  7 20  1  0
  8  9  1  0
  8 32  1  0
  9 10  2  0
  9 33  1  0
 10 11  1  0
 11 12  1  0
 12 13  2  0
 12 19  1  0
 13 14  1  0
 13 34  1  0
 14 15  1  0
 14 16  2  0
 16 17  1  0
 16 35  1  0
 17 18  1  0
 17 19  2  0
 18 26  3  0
 19 36  1  0
 20 21  2  0
 20 22  2  0
 20 23  1  0
 23 27  1  0
 23 37  1  0
 23 38  1  0
M  END
>  <ID>  (21) 
215

>  <IC50[uM](SPA)>  (21) 
0.017000000000000001

>  <atom.dprop.PartialCharge>  (21) 
-0.56287545 0.14820766 0.3983534 -0.055395916 -0.122687854 0.030191582 -0.3719379 -0.01639149 -0.1619156 0.19349532 -0.24841753 0.13031062 -0.18083599 0.15026818 -0.12922335 -0.14568488 0.04239422 0.2314048 -0.12111026 1.3858202 -0.63447756 -0.63447756 -0.20579553 -0.22508323 -0.22508323 -0.33994675 -0.096199885 0.41825724 0.086310275 0.0918439 0.0918439 0.15337874 0.16184558 0.17023489 0.1698484 0.1670932 0.12821902 0.12821902

>  <experimental dG reference units>  (21) 
uM

>  <experimental dG reference field>  (21) 
IC50[uM](SPA)

>  <kJ/mol experimental dG>  (21) 
-44.624112610345364

>  <kcal/mol experimental dG>  (21) 
-10.665418883925756

$$$$
57
     RDKit          3D

 38 40  0  0  0  0  0  0  0  0999 V2000
   27.5460    1.5662  -11.2420 O   0  0  0  0  0  0  0  0  0  0  0  0
   27.1417    0.2930  -11.6885 C   0  0  2  0  0  0  0  0  0  0  0  0
   26.5175    0.3923  -13.0762 C   0  0  0  0  0  0  0  0  0  0  0  0
   25.0389    0.6092  -12.8376 C   0  0  0  0  0  0  0  0  0  0  0  0
   24.8019   -0.0696  -11.4987 C   0  0  0  0  0  0  0  0  0  0  0  0
   26.0104   -0.2420  -10.8202 C   0  0  0  0  0  0  0  0  0  0  0  0
   26.0127   -0.7818   -9.5245 C   0  0  0  0  0  0  0  0  0  0  0  0
   24.7956   -1.0891   -8.9065 C   0  0  0  0  0  0  0  0  0  0  0  0
   23.6024   -0.9292   -9.5909 C   0  0  0  0  0  0  0  0  0  0  0  0
   23.5998   -0.4338  -10.9040 C   0  0  0  0  0  0  0  0  0  0  0  0
   22.4840   -0.2835  -11.6909 O   0  0  0  0  0  0  0  0  0  0  0  0
   21.2455   -0.5724  -11.1935 C   0  0  0  0  0  0  0  0  0  0  0  0
   20.6764   -1.8302  -11.4013 C   0  0  0  0  0  0  0  0  0  0  0  0
   19.4221   -2.1085  -10.8691 C   0  0  0  0  0  0  0  0  0  0  0  0
   18.8546   -3.3219  -11.0584 F   0  0  0  0  0  0  0  0  0  0  0  0
   18.7416   -1.1432  -10.1420 C   0  0  0  0  0  0  0  0  0  0  0  0
   19.2911    0.1307   -9.9727 C   0  0  0  0  0  0  0  0  0  0  0  0
   18.5770    1.1677   -9.2377 C   0  0  0  0  0  0  0  0  0  0  0  0
   20.5543    0.3924  -10.4659 C   0  0  0  0  0  0  0  0  0  0  0  0
   27.5112   -1.0831   -8.6116 S   0  0  0  0  0  6  0  0  0  0  0  0
   27.2088   -2.0204   -7.5319 O   0  0  0  0  0  0  0  0  0  0  0  0
   28.5710   -1.4325   -9.5653 O   0  0  0  0  0  0  0  0  0  0  0  0
   27.9471    0.5775   -7.8607 C   0  0  0  0  0  0  0  0  0  0  0  0
   28.0885    1.5196   -8.8246 F   0  0  0  0  0  0  0  0  0  0  0  0
   27.0049    0.9273   -6.9820 F   0  0  0  0  0  0  0  0  0  0  0  0
   18.0078    1.9897   -8.6610 N   0  0  0  0  0  0  0  0  0  0  0  0
   29.1051    0.3677   -7.2549 F   0  0  0  0  0  0  0  0  0  0  0  0
   28.3249    1.8309  -11.7526 H   0  0  0  0  0  0  0  0  0  0  0  0
   27.9812   -0.4065  -11.7115 H   0  0  0  0  0  0  0  0  0  0  0  0
   26.9660    1.2243  -13.6577 H   0  0  0  0  0  0  0  0  0  0  0  0
   26.6903   -0.5132  -13.6228 H   0  0  0  0  0  0  0  0  0  0  0  0
   24.4319    0.1682  -13.6370 H   0  0  0  0  0  0  0  0  0  0  0  0
   24.7947    1.6584  -12.7761 H   0  0  0  0  0  0  0  0  0  0  0  0
   24.7771   -1.4712   -7.8943 H   0  0  0  0  0  0  0  0  0  0  0  0
   22.6821   -1.2262   -9.1101 H   0  0  0  0  0  0  0  0  0  0  0  0
   21.2086   -2.5941  -11.9485 H   0  0  0  0  0  0  0  0  0  0  0  0
   17.7930   -1.4100   -9.7040 H   0  0  0  0  0  0  0  0  0  0  0  0
   21.0142    1.3550  -10.2678 H   0  0  0  0  0  0  0  0  0  0  0  0
  1  2  1  0
  1 28  1  0
  2  3  1  0
  2  6  1  0
  2 29  1  6
  3  4  1  0
  3 30  1  0
  3 31  1  0
  4  5  1  0
  4 32  1  0
  4 33  1  0
  5  6  2  0
  5 10  1  0
  6  7  1  0
  7  8  2  0
  7 20  1  0
  8  9  1  0
  8 34  1  0
  9 10  2  0
  9 35  1  0
 10 11  1  0
 11 12  1  0
 12 13  2  0
 12 19  1  0
 13 14  1  0
 13 36  1  0
 14 15  1  0
 14 16  2  0
 16 17  1  0
 16 37  1  0
 17 18  1  0
 17 19  2  0
 18 26  3  0
 19 38  1  0
 20 21  2  0
 20 22  2  0
 20 23  1  0
 23 24  1  0
 23 25  1  0
 23 27  1  0
M  END
>  <ID>  (22) 
57

>  <IC50[uM](SPA)>  (22) 
0.014999999999999999

>  <atom.dprop.PartialCharge>  (22) 
-0.5736551 0.19282524 -0.11573261 -0.012672897 -0.097393304 0.0704409 -0.4050047 -0.014781464 -0.15058072 0.18998984 -0.25012335 0.12822816 -0.18078598 0.15031819 -0.12917332 -0.14563486 0.04244423 0.23145482 -0.12106025 1.3420438 -0.6049691 -0.6049691 0.5941988 -0.24224773 -0.24224773 -0.3398967 -0.24224773 0.40981317 0.06478164 0.057318613 0.057318613 0.063047856 0.063047856 0.14674112 0.16183726 0.17028491 0.1698984 0.16714323

>  <experimental dG reference units>  (22) 
uM

>  <experimental dG reference field>  (22) 
IC50[uM](SPA)

>  <kJ/mol experimental dG>  (22) 
-44.93631371696951

>  <kcal/mol experimental dG>  (22) 
-10.740036739237453

$$$$
42
     RDKit          3D

 34 35  0  0  0  0  0  0  0  0999 V2000
   27.3181    0.2176  -11.5431 C   0  0  0  0  0  0  0  0  0  0  0  0
   24.8173   -0.0332  -11.4982 C   0  0  0  0  0  0  0  0  0  0  0  0
   26.0316   -0.2203  -10.8241 C   0  0  0  0  0  0  0  0  0  0  0  0
   26.0328   -0.7764   -9.5277 C   0  0  0  0  0  0  0  0  0  0  0  0
   24.8083   -1.0836   -8.9200 C   0  0  0  0  0  0  0  0  0  0  0  0
   23.6105   -0.9378   -9.6088 C   0  0  0  0  0  0  0  0  0  0  0  0
   23.6080   -0.4325  -10.9159 C   0  0  0  0  0  0  0  0  0  0  0  0
   22.4782   -0.3027  -11.6931 O   0  0  0  0  0  0  0  0  0  0  0  0
   21.2413   -0.5786  -11.1883 C   0  0  0  0  0  0  0  0  0  0  0  0
   20.6684   -1.8341  -11.3988 C   0  0  0  0  0  0  0  0  0  0  0  0
   19.4219   -2.1085  -10.8663 C   0  0  0  0  0  0  0  0  0  0  0  0
   18.7432   -1.1382  -10.1421 C   0  0  0  0  0  0  0  0  0  0  0  0
   19.2836    0.1206   -9.9615 C   0  0  0  0  0  0  0  0  0  0  0  0
   18.5727    1.1637   -9.2506 C   0  0  0  0  0  0  0  0  0  0  0  0
   20.5566    0.3950  -10.4703 C   0  0  0  0  0  0  0  0  0  0  0  0
   27.5391   -1.0763   -8.5681 S   0  0  0  0  0  6  0  0  0  0  0  0
   27.1919   -2.0237   -7.4724 O   0  0  0  0  0  0  0  0  0  0  0  0
   28.6309   -1.4696   -9.4479 O   0  0  0  0  0  0  0  0  0  0  0  0
   27.9381    0.5939   -7.7835 C   0  0  0  0  0  0  0  0  0  0  0  0
   27.5845    1.5769   -8.6192 F   0  0  0  0  0  0  0  0  0  0  0  0
   27.2323    0.7221   -6.6748 F   0  0  0  0  0  0  0  0  0  0  0  0
   24.7447    0.7035  -13.0743 Cl  0  0  0  0  0  0  0  0  0  0  0  0
   27.7285    1.4980  -11.1377 O   0  0  0  0  0  0  0  0  0  0  0  0
   18.8540   -3.3240  -11.0570 F   0  0  0  0  0  0  0  0  0  0  0  0
   17.9992    1.9902   -8.6618 N   0  0  0  0  0  0  0  0  0  0  0  0
   28.1192   -0.5047  -11.4029 H   0  0  0  0  0  0  0  0  0  0  0  0
   27.2079    0.2157  -12.6078 H   0  0  0  0  0  0  0  0  0  0  0  0
   24.7733   -1.4610   -7.9041 H   0  0  0  0  0  0  0  0  0  0  0  0
   22.6894   -1.2359   -9.1283 H   0  0  0  0  0  0  0  0  0  0  0  0
   21.2059   -2.5899  -11.9543 H   0  0  0  0  0  0  0  0  0  0  0  0
   17.7913   -1.4035   -9.7072 H   0  0  0  0  0  0  0  0  0  0  0  0
   21.0082    1.3546  -10.2735 H   0  0  0  0  0  0  0  0  0  0  0  0
   29.0034    0.6658   -7.6024 H   0  0  0  0  0  0  0  0  0  0  0  0
   28.5462    1.7462  -11.6214 H   0  0  0  0  0  0  0  0  0  0  0  0
  1  3  1  0
  1 23  1  0
  1 26  1  0
  1 27  1  0
  2  3  2  0
  2  7  1  0
  2 22  1  0
  3  4  1  0
  4  5  2  0
  4 16  1  0
  5  6  1  0
  5 28  1  0
  6  7  2  0
  6 29  1  0
  7  8  1  0
  8  9  1  0
  9 10  2  0
  9 15  1  0
 10 11  1  0
 10 30  1  0
 11 12  2  0
 11 24  1  0
 12 13  1  0
 12 31  1  0
 13 14  1  0
 13 15  2  0
 14 25  3  0
 15 32  1  0
 16 17  2  0
 16 18  2  0
 16 19  1  0
 19 20  1  0
 19 21  1  0
 19 33  1  0
 23 34  1  0
M  END
>  <ID>  (23) 
42

>  <IC50[uM](SPA)>  (23) 
0.28000000000000003

>  <atom.dprop.PartialCharge>  (23) 
0.15723525 -0.02553185 0.051306292 -0.40486985 -0.016704876 -0.14999554 0.16952148 -0.23979235 0.13017446 -0.17299198 0.14847296 -0.1464956 0.040481593 0.23149449 -0.114591375 1.3289516 -0.61432177 -0.61432177 0.32287022 -0.22381525 -0.22381525 -0.02712081 -0.57877153 -0.12902978 -0.3395972 0.057031356 0.057031356 0.16227902 0.16600382 0.17021278 0.17019792 0.16669986 0.076638386 0.4151639

>  <experimental dG reference units>  (23) 
uM

>  <experimental dG reference field>  (23) 
IC50[uM](SPA)

>  <kJ/mol experimental dG>  (23) 
-37.63599144508806

>  <kcal/mol experimental dG>  (23) 
-8.995217840604221

$$$$
35
     RDKit          3D

 34 35  0  0  0  0  0  0  0  0999 V2000
   27.3436    0.2181  -11.4886 C   0  0  0  0  0  0  0  0  0  0  0  0
   24.8143   -0.0349  -11.4934 C   0  0  0  0  0  0  0  0  0  0  0  0
   26.0359   -0.2157  -10.8128 C   0  0  0  0  0  0  0  0  0  0  0  0
   26.0279   -0.7798   -9.5188 C   0  0  0  0  0  0  0  0  0  0  0  0
   24.8027   -1.0842   -8.9107 C   0  0  0  0  0  0  0  0  0  0  0  0
   23.6077   -0.9361   -9.6066 C   0  0  0  0  0  0  0  0  0  0  0  0
   23.6033   -0.4369  -10.9127 C   0  0  0  0  0  0  0  0  0  0  0  0
   22.4684   -0.3083  -11.6869 O   0  0  0  0  0  0  0  0  0  0  0  0
   21.2346   -0.5820  -11.1843 C   0  0  0  0  0  0  0  0  0  0  0  0
   20.6688   -1.8348  -11.3989 C   0  0  0  0  0  0  0  0  0  0  0  0
   19.4172   -2.1128  -10.8633 C   0  0  0  0  0  0  0  0  0  0  0  0
   18.7392   -1.1398  -10.1370 C   0  0  0  0  0  0  0  0  0  0  0  0
   19.2891    0.1256   -9.9557 C   0  0  0  0  0  0  0  0  0  0  0  0
   18.4298    1.3495   -9.0945 Cl  0  0  0  0  0  0  0  0  0  0  0  0
   20.5490    0.3955  -10.4695 C   0  0  0  0  0  0  0  0  0  0  0  0
   27.5361   -1.1002   -8.5609 S   0  0  0  0  0  6  0  0  0  0  0  0
   27.1915   -2.0165   -7.4763 O   0  0  0  0  0  0  0  0  0  0  0  0
   28.6294   -1.4923   -9.4625 O   0  0  0  0  0  0  0  0  0  0  0  0
   27.9209    0.6056   -7.8457 C   0  0  0  0  0  0  0  0  0  0  0  0
   27.8955    1.4798   -8.8507 F   0  0  0  0  0  0  0  0  0  0  0  0
   26.9875    0.8733   -6.9434 F   0  0  0  0  0  0  0  0  0  0  0  0
   24.7678    0.5910  -12.8118 C   0  0  0  0  0  0  0  0  0  0  0  0
   24.7397    1.0868  -13.8577 N   0  0  0  0  0  0  0  0  0  0  0  0
   27.7506    1.4985  -11.0563 O   0  0  0  0  0  0  0  0  0  0  0  0
   18.8551   -3.3220  -11.0512 F   0  0  0  0  0  0  0  0  0  0  0  0
   28.1384   -0.4849  -11.3364 H   0  0  0  0  0  0  0  0  0  0  0  0
   27.2792    0.1852  -12.5694 H   0  0  0  0  0  0  0  0  0  0  0  0
   24.7669   -1.4583   -7.8977 H   0  0  0  0  0  0  0  0  0  0  0  0
   22.6880   -1.2361   -9.1232 H   0  0  0  0  0  0  0  0  0  0  0  0
   21.2037   -2.5885  -11.9555 H   0  0  0  0  0  0  0  0  0  0  0  0
   17.7939   -1.3817   -9.7021 H   0  0  0  0  0  0  0  0  0  0  0  0
   20.9933    1.3586  -10.2824 H   0  0  0  0  0  0  0  0  0  0  0  0
   28.8931    0.6288   -7.3559 H   0  0  0  0  0  0  0  0  0  0  0  0
   28.4520    1.8114  -11.6736 H   0  0  0  0  0  0  0  0  0  0  0  0
  1  3  1  0
  1 24  1  0
  1 26  1  0
  1 27  1  0
  2  3  2  0
  2  7  1  0
  2 22  1  0
  3  4  1  0
  4  5  2  0
  4 16  1  0
  5  6  1  0
  5 28  1  0
  6  7  2  0
  6 29  1  0
  7  8  1  0
  8  9  1  0
  9 10  2  0
  9 15  1  0
 10 11  1  0
 10 30  1  0
 11 12  2  0
 11 25  1  0
 12 13  1  0
 12 31  1  0
 13 14  1  0
 13 15  2  0
 15 32  1  0
 16 17  2  0
 16 18  2  0
 16 19  1  0
 19 20  1  0
 19 21  1  0
 19 33  1  0
 22 23  3  0
 24 34  1  0
M  END
>  <ID>  (24) 
35

>  <IC50[uM](SPA)>  (24) 
5.7000000000000002

>  <atom.dprop.PartialCharge>  (24) 
0.14251283 -0.056034796 0.08719309 -0.41101655 0.0018691905 -0.17401859 0.22287446 -0.23082784 0.1185225 -0.17473991 0.1624657 -0.1758103 0.0681844 -0.076149404 -0.14718923 1.3355685 -0.61325336 -0.61325336 0.32403257 -0.22370376 -0.22370376 0.24278855 -0.33548415 -0.57430154 -0.13077512 0.05729355 0.05729355 0.16753495 0.1700827 0.17029807 0.16962267 0.16784656 0.07694342 0.41733414

>  <experimental dG reference units>  (24) 
uM

>  <experimental dG reference field>  (24) 
IC50[uM](SPA)

>  <kJ/mol experimental dG>  (24) 
-30.119427572477868

>  <kcal/mol experimental dG>  (24) 
-7.198715959005226

$$$$
252
     RDKit          3D

 37 39  0  0  0  0  0  0  0  0999 V2000
   27.6272    1.5392  -11.1203 O   0  0  0  0  0  0  0  0  0  0  0  0
   27.1560    0.3040  -11.6456 C   0  0  2  0  0  0  0  0  0  0  0  0
   26.5217    0.3806  -13.0460 C   0  0  0  0  0  0  0  0  0  0  0  0
   25.0330    0.5955  -12.8364 C   0  0  0  0  0  0  0  0  0  0  0  0
   24.8086   -0.0746  -11.4954 C   0  0  0  0  0  0  0  0  0  0  0  0
   26.0176   -0.2341  -10.8015 C   0  0  0  0  0  0  0  0  0  0  0  0
   26.0221   -0.7646   -9.5003 C   0  0  0  0  0  0  0  0  0  0  0  0
   24.8023   -1.0839   -8.8976 C   0  0  0  0  0  0  0  0  0  0  0  0
   23.6037   -0.9285   -9.5871 C   0  0  0  0  0  0  0  0  0  0  0  0
   23.6033   -0.4271  -10.8952 C   0  0  0  0  0  0  0  0  0  0  0  0
   22.4845   -0.2768  -11.6823 O   0  0  0  0  0  0  0  0  0  0  0  0
   21.2452   -0.5718  -11.1881 C   0  0  0  0  0  0  0  0  0  0  0  0
   20.6754   -1.8264  -11.4017 C   0  0  0  0  0  0  0  0  0  0  0  0
   19.4205   -2.1096  -10.8738 C   0  0  0  0  0  0  0  0  0  0  0  0
   18.8538   -3.3152  -11.0677 F   0  0  0  0  0  0  0  0  0  0  0  0
   18.7369   -1.1453  -10.1422 C   0  0  0  0  0  0  0  0  0  0  0  0
   19.2852    0.1248   -9.9603 C   0  0  0  0  0  0  0  0  0  0  0  0
   18.5778    1.1653   -9.2362 C   0  0  0  0  0  0  0  0  0  0  0  0
   20.5515    0.3943  -10.4623 C   0  0  0  0  0  0  0  0  0  0  0  0
   27.5325   -1.0603   -8.5700 S   0  0  0  0  0  6  0  0  0  0  0  0
   27.2148   -1.9861   -7.4807 O   0  0  0  0  0  0  0  0  0  0  0  0
   28.6045   -1.3793   -9.5081 O   0  0  0  0  0  0  0  0  0  0  0  0
   27.9346    0.4720   -7.8610 N   0  0  0  0  0  0  0  0  0  0  0  0
   27.0654    1.3180  -13.8219 F   0  0  0  0  0  0  0  0  0  0  0  0
   26.6664   -0.7984  -13.6558 F   0  0  0  0  0  0  0  0  0  0  0  0
   18.0227    1.9941   -8.6522 N   0  0  0  0  0  0  0  0  0  0  0  0
   28.3555    1.8653  -11.6765 H   0  0  0  0  0  0  0  0  0  0  0  0
   27.9781   -0.4091  -11.7063 H   0  0  0  0  0  0  0  0  0  0  0  0
   24.4242    0.1890  -13.6462 H   0  0  0  0  0  0  0  0  0  0  0  0
   24.8013    1.6590  -12.7701 H   0  0  0  0  0  0  0  0  0  0  0  0
   24.7765   -1.4822   -7.8947 H   0  0  0  0  0  0  0  0  0  0  0  0
   22.6850   -1.2325   -9.1075 H   0  0  0  0  0  0  0  0  0  0  0  0
   21.2121   -2.5898  -11.9431 H   0  0  0  0  0  0  0  0  0  0  0  0
   17.8013   -1.4259   -9.7039 H   0  0  0  0  0  0  0  0  0  0  0  0
   21.0089    1.3503  -10.2685 H   0  0  0  0  0  0  0  0  0  0  0  0
   27.2535    0.7935   -7.1729 H   0  0  0  0  0  0  0  0  0  0  0  0
   28.1763    1.1767   -8.5625 H   0  0  0  0  0  0  0  0  0  0  0  0
  1  2  1  0
  1 27  1  0
  2  3  1  0
  2  6  1  0
  2 28  1  6
  3  4  1  0
  3 24  1  0
  3 25  1  0
  4  5  1  0
  4 29  1  0
  4 30  1  0
  5  6  2  0
  5 10  1  0
  6  7  1  0
  7  8  2  0
  7 20  1  0
  8  9  1  0
  8 31  1  0
  9 10  2  0
  9 32  1  0
 10 11  1  0
 11 12  1  0
 12 13  2  0
 12 19  1  0
 13 14  1  0
 13 33  1  0
 14 15  1  0
 14 16  2  0
 16 17  1  0
 16 34  1  0
 17 18  1  0
 17 19  2  0
 18 26  3  0
 19 35  1  0
 20 21  2  0
 20 22  2  0
 20 23  1  0
 23 36  1  0
 23 37  1  0
M  END
>  <ID>  (25) 
252

>  <IC50[uM](SPA)>  (25) 
0.075999999999999998

>  <atom.dprop.PartialCharge>  (25) 
-0.56551576 0.14031751 0.39779672 -0.057808917 -0.13129812 0.033849195 -0.3525659 -0.017888028 -0.1679606 0.18497603 -0.24757269 0.12966135 -0.18148535 0.1496189 -0.12987274 -0.1463342 0.041744925 0.23075542 -0.12175959 1.5401981 -0.6504657 -0.6504657 -1.0280156 -0.22541945 -0.22541945 -0.34059608 0.41848844 0.083874926 0.09129749 0.09129749 0.1408925 0.15955268 0.16958553 0.16919903 0.16644385 0.45044693 0.45044693

>  <experimental dG reference units>  (25) 
uM

>  <experimental dG reference field>  (25) 
IC50[uM](SPA)

>  <kJ/mol experimental dG>  (25) 
-40.888768570713616

>  <kcal/mol experimental dG>  (25) 
-9.772650232006121

$$$$
336
     RDKit          3D

 37 39  0  0  0  0  0  0  0  0999 V2000
   28.0017    1.1554  -10.7561 O   0  0  0  0  0  0  0  0  0  0  0  0
   27.1887    0.2094  -11.4461 C   0  0  2  0  0  0  0  0  0  0  0  0
   26.5170    0.8013  -12.6963 C   0  0  1  0  0  0  0  0  0  0  0  0
   25.1920    0.0739  -12.8350 C   0  0  1  0  0  0  0  0  0  0  0  0
   24.8410   -0.2394  -11.4041 C   0  0  0  0  0  0  0  0  0  0  0  0
   25.9976   -0.2708  -10.6132 C   0  0  0  0  0  0  0  0  0  0  0  0
   25.9018   -0.7012   -9.2751 C   0  0  0  0  0  0  0  0  0  0  0  0
   24.6420   -0.9417   -8.7237 C   0  0  0  0  0  0  0  0  0  0  0  0
   23.4967   -0.8363   -9.5019 C   0  0  0  0  0  0  0  0  0  0  0  0
   23.5906   -0.5071  -10.8564 C   0  0  0  0  0  0  0  0  0  0  0  0
   22.5177   -0.4372  -11.7191 O   0  0  0  0  0  0  0  0  0  0  0  0
   21.2475   -0.6509  -11.2594 C   0  0  0  0  0  0  0  0  0  0  0  0
   20.6133   -1.8570  -11.5324 C   0  0  0  0  0  0  0  0  0  0  0  0
   19.3358   -2.0915  -11.0377 C   0  0  0  0  0  0  0  0  0  0  0  0
   18.7005   -3.2450  -11.3168 F   0  0  0  0  0  0  0  0  0  0  0  0
   18.6966   -1.1280  -10.2666 C   0  0  0  0  0  0  0  0  0  0  0  0
   19.3124    0.1012  -10.0242 C   0  0  0  0  0  0  0  0  0  0  0  0
   18.6517    1.1490   -9.2706 C   0  0  0  0  0  0  0  0  0  0  0  0
   20.5958    0.3258  -10.5084 C   0  0  0  0  0  0  0  0  0  0  0  0
   27.3000   -1.0274   -8.2059 S   0  0  0  0  0  6  0  0  0  0  0  0
   26.8468   -1.9518   -7.1631 O   0  0  0  0  0  0  0  0  0  0  0  0
   28.4307   -1.3569   -9.0788 O   0  0  0  0  0  0  0  0  0  0  0  0
   26.2251    2.0652  -12.4186 F   0  0  0  0  0  0  0  0  0  0  0  0
   18.1329    1.9838   -8.6644 N   0  0  0  0  0  0  0  0  0  0  0  0
   24.3006    0.8164  -13.4952 F   0  0  0  0  0  0  0  0  0  0  0  0
   27.7092    0.4639   -7.4488 N   0  0  0  0  0  0  0  0  0  0  0  0
   28.5314    1.6554  -11.3951 H   0  0  0  0  0  0  0  0  0  0  0  0
   27.7885   -0.6501  -11.7494 H   0  0  0  0  0  0  0  0  0  0  0  0
   27.1367    0.8148  -13.5962 H   0  0  0  0  0  0  0  0  0  0  0  0
   25.3024   -0.8318  -13.4322 H   0  0  0  0  0  0  0  0  0  0  0  0
   24.5459   -1.2350   -7.6890 H   0  0  0  0  0  0  0  0  0  0  0  0
   22.5403   -1.0632   -9.0641 H   0  0  0  0  0  0  0  0  0  0  0  0
   21.1114   -2.6124  -12.1160 H   0  0  0  0  0  0  0  0  0  0  0  0
   17.7386   -1.3762   -9.8563 H   0  0  0  0  0  0  0  0  0  0  0  0
   21.0990    1.2456  -10.2714 H   0  0  0  0  0  0  0  0  0  0  0  0
   26.9316    0.7997   -6.8682 H   0  0  0  0  0  0  0  0  0  0  0  0
   28.0360    1.1649   -8.1144 H   0  0  0  0  0  0  0  0  0  0  0  0
  1  2  1  0
  1 27  1  0
  2  3  1  0
  2  6  1  0
  2 28  1  6
  3  4  1  0
  3 23  1  0
  3 29  1  6
  4  5  1  0
  4 25  1  0
  4 30  1  6
  5  6  2  0
  5 10  1  0
  6  7  1  0
  7  8  2  0
  7 20  1  0
  8  9  1  0
  8 31  1  0
  9 10  2  0
  9 32  1  0
 10 11  1  0
 11 12  1  0
 12 13  2  0
 12 19  1  0
 13 14  1  0
 13 33  1  0
 14 15  1  0
 14 16  2  0
 16 17  1  0
 16 34  1  0
 17 18  1  0
 17 19  2  0
 18 24  3  0
 19 35  1  0
 20 21  2  0
 20 22  2  0
 20 26  1  0
 26 36  1  0
 26 37  1  0
M  END
>  <ID>  (26) 
336

>  <IC50[uM](SPA)>  (26) 
0.063

>  <atom.dprop.PartialCharge>  (26) 
-0.5683544 0.15895493 0.10720925 0.2223819 -0.1879 0.070451945 -0.36417755 -0.0079645105 -0.17949724 0.21468735 -0.25484157 0.13004744 -0.17765217 0.15100433 -0.12848708 -0.14494869 0.043130375 0.23214105 -0.118359715 1.541127 -0.649668 -0.649668 -0.2189731 -0.3392105 -0.21771257 -1.0268724 0.4160998 0.074456245 0.079884514 0.07666473 0.14024457 0.16275248 0.17097113 0.17058462 0.16782942 0.4518325 0.4518325

>  <experimental dG reference units>  (26) 
uM

>  <experimental dG reference field>  (26) 
IC50[uM](SPA)

>  <kJ/mol experimental dG>  (26) 
-41.3567058042859

>  <kcal/mol experimental dG>  (26) 
-9.88448991498229

$$$$
290
     RDKit          3D

 39 41  0  0  0  0  0  0  0  0999 V2000
   27.5740    1.5625  -11.2291 N   0  0  0  0  0  0  0  0  0  0  0  0
   27.1541    0.2576  -11.6910 C   0  0  2  0  0  0  0  0  0  0  0  0
   26.5095    0.3461  -13.0777 C   0  0  0  0  0  0  0  0  0  0  0  0
   25.0290    0.5954  -12.8450 C   0  0  0  0  0  0  0  0  0  0  0  0
   24.8037   -0.0602  -11.4984 C   0  0  0  0  0  0  0  0  0  0  0  0
   26.0092   -0.2240  -10.8090 C   0  0  0  0  0  0  0  0  0  0  0  0
   26.0109   -0.7777   -9.5207 C   0  0  0  0  0  0  0  0  0  0  0  0
   24.7959   -1.0889   -8.9045 C   0  0  0  0  0  0  0  0  0  0  0  0
   23.5992   -0.9223   -9.5915 C   0  0  0  0  0  0  0  0  0  0  0  0
   23.5984   -0.4194  -10.8961 C   0  0  0  0  0  0  0  0  0  0  0  0
   22.4824   -0.2843  -11.6898 O   0  0  0  0  0  0  0  0  0  0  0  0
   21.2448   -0.5748  -11.1956 C   0  0  0  0  0  0  0  0  0  0  0  0
   20.6740   -1.8289  -11.4024 C   0  0  0  0  0  0  0  0  0  0  0  0
   19.4243   -2.1094  -10.8700 C   0  0  0  0  0  0  0  0  0  0  0  0
   18.8514   -3.3146  -11.0611 F   0  0  0  0  0  0  0  0  0  0  0  0
   18.7414   -1.1444  -10.1434 C   0  0  0  0  0  0  0  0  0  0  0  0
   19.2871    0.1244   -9.9694 C   0  0  0  0  0  0  0  0  0  0  0  0
   18.5764    1.1678   -9.2409 C   0  0  0  0  0  0  0  0  0  0  0  0
   20.5463    0.3914  -10.4687 C   0  0  0  0  0  0  0  0  0  0  0  0
   27.5079   -1.0807   -8.5946 S   0  0  0  0  0  6  0  0  0  0  0  0
   28.5661   -1.4034   -9.5526 O   0  0  0  0  0  0  0  0  0  0  0  0
   27.2082   -2.0475   -7.5362 O   0  0  0  0  0  0  0  0  0  0  0  0
   27.8937    0.5866   -7.7878 C   0  0  0  0  0  0  0  0  0  0  0  0
   27.0532    1.2780  -13.8693 F   0  0  0  0  0  0  0  0  0  0  0  0
   26.6434   -0.8310  -13.6723 F   0  0  0  0  0  0  0  0  0  0  0  0
   18.0158    1.9913   -8.6668 N   0  0  0  0  0  0  0  0  0  0  0  0
   29.1657    0.5265   -7.4607 F   0  0  0  0  0  0  0  0  0  0  0  0
   27.7528    1.6123   -8.6183 F   0  0  0  0  0  0  0  0  0  0  0  0
   27.1110    0.7689   -6.7327 F   0  0  0  0  0  0  0  0  0  0  0  0
   28.0811    1.4599  -10.3770 H   0  0  0  0  0  0  0  0  0  0  0  0
   28.2888    1.9365  -11.8603 H   0  0  0  0  0  0  0  0  0  0  0  0
   28.0018   -0.4423  -11.7297 H   0  0  0  0  0  0  0  0  0  0  0  0
   24.4058    0.1882  -13.6467 H   0  0  0  0  0  0  0  0  0  0  0  0
   24.8104    1.6599  -12.7803 H   0  0  0  0  0  0  0  0  0  0  0  0
   24.7747   -1.4836   -7.9003 H   0  0  0  0  0  0  0  0  0  0  0  0
   22.6851   -1.2365   -9.1107 H   0  0  0  0  0  0  0  0  0  0  0  0
   21.2092   -2.5946  -11.9437 H   0  0  0  0  0  0  0  0  0  0  0  0
   17.8072   -1.4207   -9.7067 H   0  0  0  0  0  0  0  0  0  0  0  0
   21.0053    1.3469  -10.2638 H   0  0  0  0  0  0  0  0  0  0  0  0
  1  2  1  0
  1 30  1  0
  1 31  1  0
  2  3  1  0
  2  6  1  0
  2 32  1  6
  3  4  1  0
  3 24  1  0
  3 25  1  0
  4  5  1  0
  4 33  1  0
  4 34  1  0
  5  6  2  0
  5 10  1  0
  6  7  1  0
  7  8  2  0
  7 20  1  0
  8  9  1  0
  8 35  1  0
  9 10  2  0
  9 36  1  0
 10 11  1  0
 11 12  1  0
 12 13  2  0
 12 19  1  0
 13 14  1  0
 13 37  1  0
 14 15  1  0
 14 16  2  0
 16 17  1  0
 16 38  1  0
 17 18  1  0
 17 19  2  0
 18 26  3  0
 19 39  1  0
 20 21  2  0
 20 22  2  0
 20 23  1  0
 23 27  1  0
 23 28  1  0
 23 29  1  0
M  END
>  <ID>  (27) 
290

>  <IC50[uM](SPA)>  (27) 
0.017999999999999999

>  <atom.dprop.PartialCharge>  (27) 
-0.88945204 0.18063617 0.402687 -0.057147257 -0.12525669 0.043237206 -0.41150504 0.005638052 -0.15916601 0.20545188 -0.24838603 0.1303129 -0.18041337 0.15069076 -0.12880069 -0.14526227 0.042816803 0.23182744 -0.12068765 1.3450171 -0.60280323 -0.60280323 0.5954658 -0.22893094 -0.22893094 -0.3395241 -0.24186556 -0.24186556 -0.24186556 0.3699087 0.3699087 0.113002144 0.092204705 0.092204705 0.15184584 0.16336629 0.17065752 0.17027102 0.16751583

>  <experimental dG reference units>  (27) 
uM

>  <experimental dG reference field>  (27) 
IC50[uM](SPA)

>  <kJ/mol experimental dG>  (27) 
-44.48153932852652

>  <kcal/mol experimental dG>  (27) 
-10.631343051751081

$$$$
155
     RDKit          3D

 38 40  0  0  0  0  0  0  0  0999 V2000
   27.5494    1.5659  -11.2067 O   0  0  0  0  0  0  0  0  0  0  0  0
   27.1387    0.3127  -11.6756 C   0  0  2  0  0  0  0  0  0  0  0  0
   26.5195    0.3859  -13.0738 C   0  0  0  0  0  0  0  0  0  0  0  0
   25.0304    0.6044  -12.8406 C   0  0  0  0  0  0  0  0  0  0  0  0
   24.8061   -0.0723  -11.5018 C   0  0  0  0  0  0  0  0  0  0  0  0
   26.0164   -0.2280  -10.8172 C   0  0  0  0  0  0  0  0  0  0  0  0
   26.0250   -0.7653   -9.5189 C   0  0  0  0  0  0  0  0  0  0  0  0
   24.8069   -1.0884   -8.9105 C   0  0  0  0  0  0  0  0  0  0  0  0
   23.6125   -0.9394   -9.5957 C   0  0  0  0  0  0  0  0  0  0  0  0
   23.6090   -0.4330  -10.9057 C   0  0  0  0  0  0  0  0  0  0  0  0
   22.4875   -0.2786  -11.6860 O   0  0  0  0  0  0  0  0  0  0  0  0
   21.2486   -0.5699  -11.1809 C   0  0  0  0  0  0  0  0  0  0  0  0
   20.6770   -1.8256  -11.3995 C   0  0  0  0  0  0  0  0  0  0  0  0
   19.4179   -2.1080  -10.8727 C   0  0  0  0  0  0  0  0  0  0  0  0
   18.7289   -1.1532  -10.1417 C   0  0  0  0  0  0  0  0  0  0  0  0
   19.3023    0.1333   -9.9545 C   0  0  0  0  0  0  0  0  0  0  0  0
   18.5710    1.1634   -9.2382 C   0  0  0  0  0  0  0  0  0  0  0  0
   20.5526    0.3882  -10.4464 C   0  0  0  0  0  0  0  0  0  0  0  0
   27.5350   -1.0542   -8.5888 S   0  0  0  0  0  6  0  0  0  0  0  0
   27.2245   -2.0103   -7.5175 O   0  0  0  0  0  0  0  0  0  0  0  0
   28.5876   -1.3949   -9.5469 O   0  0  0  0  0  0  0  0  0  0  0  0
   27.9675    0.6084   -7.8120 C   0  0  0  0  0  0  0  0  0  0  0  0
   27.8916    1.5374   -8.7619 F   0  0  0  0  0  0  0  0  0  0  0  0
   27.1087    0.8486   -6.8235 F   0  0  0  0  0  0  0  0  0  0  0  0
   18.0096    1.9978   -8.6641 N   0  0  0  0  0  0  0  0  0  0  0  0
   18.8612   -3.3248  -11.0680 F   0  0  0  0  0  0  0  0  0  0  0  0
   28.3285    1.8440  -11.7146 H   0  0  0  0  0  0  0  0  0  0  0  0
   27.9831   -0.3652  -11.7079 H   0  0  0  0  0  0  0  0  0  0  0  0
   26.9486    1.2013  -13.6586 H   0  0  0  0  0  0  0  0  0  0  0  0
   26.7016   -0.5357  -13.6445 H   0  0  0  0  0  0  0  0  0  0  0  0
   24.4372    0.1594  -13.6425 H   0  0  0  0  0  0  0  0  0  0  0  0
   24.7828    1.6653  -12.7799 H   0  0  0  0  0  0  0  0  0  0  0  0
   24.7866   -1.4665   -7.8955 H   0  0  0  0  0  0  0  0  0  0  0  0
   22.6845   -1.2110   -9.1051 H   0  0  0  0  0  0  0  0  0  0  0  0
   21.2122   -2.5863  -11.9511 H   0  0  0  0  0  0  0  0  0  0  0  0
   17.7861   -1.4111   -9.7045 H   0  0  0  0  0  0  0  0  0  0  0  0
   21.0278    1.3625  -10.2649 H   0  0  0  0  0  0  0  0  0  0  0  0
   28.9817    0.5496   -7.4392 H   0  0  0  0  0  0  0  0  0  0  0  0
  1  2  1  0
  1 27  1  0
  2  3  1  0
  2  6  1  0
  2 28  1  6
  3  4  1  0
  3 29  1  0
  3 30  1  0
  4  5  1  0
  4 31  1  0
  4 32  1  0
  5  6  2  0
  5 10  1  0
  6  7  1  0
  7  8  2  0
  7 19  1  0
  8  9  1  0
  8 33  1  0
  9 10  2  0
  9 34  1  0
 10 11  1  0
 11 12  1  0
 12 13  2  0
 12 18  1  0
 13 14  1  0
 13 35  1  0
 14 15  2  0
 14 26  1  0
 15 16  1  0
 15 36  1  0
 16 17  1  0
 16 18  2  0
 17 25  3  0
 18 37  1  0
 19 20  2  0
 19 21  2  0
 19 22  1  0
 22 23  1  0
 22 24  1  0
 22 38  1  0
M  END
>  <ID>  (28) 
155

>  <IC50[uM](SPA)>  (28) 
0.02

>  <atom.dprop.PartialCharge>  (28) 
-0.5752258 0.1890218 -0.11690071 -0.013636325 -0.104944535 0.0634457 -0.37156126 -0.02087161 -0.15955736 0.18846285 -0.25124592 0.12710568 -0.18190861 0.14919569 -0.14675744 0.041321725 0.23033217 -0.12218283 1.3258208 -0.62072444 -0.62072444 0.3167886 -0.22545004 -0.22545004 -0.34101933 -0.130296 0.40869057 0.063429095 0.05619604 0.05619604 0.061925277 0.061925277 0.14904863 0.16058542 0.16916229 0.16877578 0.16602062 0.075006366

>  <experimental dG reference units>  (28) 
uM

>  <experimental dG reference field>  (28) 
IC50[uM](SPA)

>  <kJ/mol experimental dG>  (28) 
-44.21873297190643

>  <kcal/mol experimental dG>  (28) 
-10.568530825025436

$$$$
164
     RDKit          3D

 39 41  0  0  0  0  0  0  0  0999 V2000
   27.6126   -0.7221  -11.8575 N   0  0  0  0  0  0  0  0  0  0  0  0
   26.8627    0.4834  -11.6485 C   0  0  1  0  0  0  0  0  0  0  0  0
   26.1047    0.9544  -12.9037 C   0  0  0  0  0  0  0  0  0  0  0  0
   24.7399    0.3045  -12.8887 C   0  0  0  0  0  0  0  0  0  0  0  0
   24.5521    0.0154  -11.4229 C   0  0  0  0  0  0  0  0  0  0  0  0
   25.7582    0.0913  -10.7061 C   0  0  0  0  0  0  0  0  0  0  0  0
   25.8158   -0.3193   -9.3720 C   0  0  0  0  0  0  0  0  0  0  0  0
   24.6669   -0.8401   -8.7767 C   0  0  0  0  0  0  0  0  0  0  0  0
   23.4728   -0.8983   -9.5001 C   0  0  0  0  0  0  0  0  0  0  0  0
   23.4127   -0.4346  -10.8069 C   0  0  0  0  0  0  0  0  0  0  0  0
   22.3203   -0.4472  -11.6365 O   0  0  0  0  0  0  0  0  0  0  0  0
   21.0931   -0.6646  -11.1188 C   0  0  0  0  0  0  0  0  0  0  0  0
   20.5226   -1.9214  -11.2703 C   0  0  0  0  0  0  0  0  0  0  0  0
   19.2978   -2.1862  -10.6822 C   0  0  0  0  0  0  0  0  0  0  0  0
   18.7173   -3.3953  -10.8100 F   0  0  0  0  0  0  0  0  0  0  0  0
   18.6466   -1.1917   -9.9592 C   0  0  0  0  0  0  0  0  0  0  0  0
   19.1729    0.0954   -9.8802 C   0  0  0  0  0  0  0  0  0  0  0  0
   18.4511    1.1750   -9.2307 C   0  0  0  0  0  0  0  0  0  0  0  0
   20.4149    0.3549  -10.4427 C   0  0  0  0  0  0  0  0  0  0  0  0
   27.3832   -0.4357   -8.4930 S   0  0  0  0  0  6  0  0  0  0  0  0
   27.1650   -1.2520   -7.3169 O   0  0  0  0  0  0  0  0  0  0  0  0
   28.4060   -0.7807   -9.4815 O   0  0  0  0  0  0  0  0  0  0  0  0
   27.7560    1.2677   -7.8424 C   0  0  0  0  0  0  0  0  0  0  0  0
   25.9199    2.2501  -12.6967 F   0  0  0  0  0  0  0  0  0  0  0  0
   26.7393    0.7426  -14.0688 F   0  0  0  0  0  0  0  0  0  0  0  0
   17.8847    2.0403   -8.7170 N   0  0  0  0  0  0  0  0  0  0  0  0
   28.4254   -0.5246  -12.4360 H   0  0  0  0  0  0  0  0  0  0  0  0
   27.9605   -1.1018  -10.9738 H   0  0  0  0  0  0  0  0  0  0  0  0
   27.4864    1.2911  -11.3381 H   0  0  0  0  0  0  0  0  0  0  0  0
   24.7677   -0.6258  -13.4628 H   0  0  0  0  0  0  0  0  0  0  0  0
   23.9668    0.9440  -13.3228 H   0  0  0  0  0  0  0  0  0  0  0  0
   24.7064   -1.2424   -7.7690 H   0  0  0  0  0  0  0  0  0  0  0  0
   22.6069   -1.3623   -9.0644 H   0  0  0  0  0  0  0  0  0  0  0  0
   21.0440   -2.6868  -11.8270 H   0  0  0  0  0  0  0  0  0  0  0  0
   17.7233   -1.4644   -9.4868 H   0  0  0  0  0  0  0  0  0  0  0  0
   20.8568    1.3336  -10.3269 H   0  0  0  0  0  0  0  0  0  0  0  0
   28.7359    1.1864   -7.3802 H   0  0  0  0  0  0  0  0  0  0  0  0
   27.0414    1.4910   -7.0641 H   0  0  0  0  0  0  0  0  0  0  0  0
   27.7898    1.9666   -8.6384 H   0  0  0  0  0  0  0  0  0  0  0  0
  1  2  1  0
  1 27  1  0
  1 28  1  0
  2  3  1  0
  2  6  1  0
  2 29  1  1
  3  4  1  0
  3 24  1  0
  3 25  1  0
  4  5  1  0
  4 30  1  0
  4 31  1  0
  5  6  2  0
  5 10  1  0
  6  7  1  0
  7  8  2  0
  7 20  1  0
  8  9  1  0
  8 32  1  0
  9 10  2  0
  9 33  1  0
 10 11  1  0
 11 12  1  0
 12 13  2  0
 12 19  1  0
 13 14  1  0
 13 34  1  0
 14 15  1  0
 14 16  2  0
 16 17  1  0
 16 35  1  0
 17 18  1  0
 17 19  2  0
 18 26  3  0
 19 36  1  0
 20 21  2  0
 20 22  2  0
 20 23  1  0
 23 37  1  0
 23 38  1  0
 23 39  1  0
M  END
>  <ID>  (29) 
164

>  <IC50[uM](SPA)>  (29) 
11

>  <atom.dprop.PartialCharge>  (29) 
-0.8935645 0.17776862 0.39664754 -0.063492894 -0.13373658 0.026645932 -0.35085446 -0.012948982 -0.17469466 0.19387883 -0.25025037 0.12844874 -0.18227778 0.14882655 -0.1306652 -0.14712659 0.040952586 0.22996297 -0.122551985 1.4034234 -0.6533191 -0.6533191 -0.36160958 -0.23079568 -0.23079568 -0.3413885 0.36804447 0.36804447 0.10618398 0.09034029 0.09034029 0.15152821 0.15940468 0.16879311 0.1684066 0.16565144 0.11669978 0.11669978 0.11669978

>  <experimental dG reference units>  (29) 
uM

>  <experimental dG reference field>  (29) 
IC50[uM](SPA)

>  <kJ/mol experimental dG>  (29) 
-28.479567090668287

>  <kcal/mol experimental dG>  (29) 
-6.8067798973872575

$$$$
7a
     RDKit          3D

 40 42  0  0  0  0  0  0  0  0999 V2000
   27.8986    1.1686  -10.8159 O   0  0  0  0  0  0  0  0  0  0  0  0
   27.3063    0.0821  -11.4967 C   0  0  2  0  0  0  0  0  0  0  0  0
   26.7543    0.5309  -12.8435 C   0  0  0  0  0  0  0  0  0  0  0  0
   25.2972    0.0902  -12.9073 C   0  0  1  0  0  0  0  0  0  0  0  0
   24.9356   -0.2719  -11.4777 C   0  0  0  0  0  0  0  0  0  0  0  0
   26.1058   -0.4336  -10.7289 C   0  0  0  0  0  0  0  0  0  0  0  0
   26.0415   -0.9623   -9.4361 C   0  0  0  0  0  0  0  0  0  0  0  0
   24.8001   -1.2235   -8.8639 C   0  0  0  0  0  0  0  0  0  0  0  0
   23.6290   -0.9777   -9.5693 C   0  0  0  0  0  0  0  0  0  0  0  0
   23.6838   -0.5129  -10.8898 C   0  0  0  0  0  0  0  0  0  0  0  0
   22.5621   -0.2401  -11.6444 O   0  0  0  0  0  0  0  0  0  0  0  0
   21.3109   -0.5861  -11.1952 C   0  0  0  0  0  0  0  0  0  0  0  0
   20.8154   -1.8606  -11.4562 C   0  0  0  0  0  0  0  0  0  0  0  0
   19.5537   -2.2243  -11.0029 C   0  0  0  0  0  0  0  0  0  0  0  0
   19.0721   -3.4508  -11.2863 F   0  0  0  0  0  0  0  0  0  0  0  0
   18.7894   -1.3253  -10.2644 C   0  0  0  0  0  0  0  0  0  0  0  0
   19.2720   -0.0424  -10.0060 C   0  0  0  0  0  0  0  0  0  0  0  0
   18.3130    1.0837   -9.1138 Cl  0  0  0  0  0  0  0  0  0  0  0  0
   20.5312    0.3270  -10.4759 C   0  0  0  0  0  0  0  0  0  0  0  0
   27.5140   -1.2559   -8.4651 S   0  0  0  0  0  6  0  0  0  0  0  0
   27.1933   -2.2794   -7.4639 O   0  0  0  0  0  0  0  0  0  0  0  0
   28.6255   -1.4828   -9.3950 O   0  0  0  0  0  0  0  0  0  0  0  0
   27.7388    0.4232   -7.6234 C   0  0  0  0  0  0  0  0  0  0  0  0
   27.7231    1.3759   -8.5583 F   0  0  0  0  0  0  0  0  0  0  0  0
   26.7479    0.5754   -6.7503 F   0  0  0  0  0  0  0  0  0  0  0  0
   24.4377    1.1669  -13.5390 C   0  0  0  0  0  0  0  0  0  0  0  0
   28.6114    1.5312  -11.3627 H   0  0  0  0  0  0  0  0  0  0  0  0
   28.0280   -0.7165  -11.6685 H   0  0  0  0  0  0  0  0  0  0  0  0
   26.8240    1.6206  -12.9191 H   0  0  0  0  0  0  0  0  0  0  0  0
   27.3250    0.1428  -13.6861 H   0  0  0  0  0  0  0  0  0  0  0  0
   25.2257   -0.8173  -13.5111 H   0  0  0  0  0  0  0  0  0  0  0  0
   24.7387   -1.6083   -7.8634 H   0  0  0  0  0  0  0  0  0  0  0  0
   22.6833   -1.1799   -9.0869 H   0  0  0  0  0  0  0  0  0  0  0  0
   21.4160   -2.5775  -11.9946 H   0  0  0  0  0  0  0  0  0  0  0  0
   17.8284   -1.6333   -9.8958 H   0  0  0  0  0  0  0  0  0  0  0  0
   20.9029    1.3142  -10.2637 H   0  0  0  0  0  0  0  0  0  0  0  0
   28.6860    0.4534   -7.0836 H   0  0  0  0  0  0  0  0  0  0  0  0
   23.4853    0.7664  -13.8251 H   0  0  0  0  0  0  0  0  0  0  0  0
   24.8788    1.5661  -14.4435 H   0  0  0  0  0  0  0  0  0  0  0  0
   24.2853    1.9768  -12.8310 H   0  0  0  0  0  0  0  0  0  0  0  0
  1  2  1  0
  1 27  1  0
  2  3  1  0
  2  6  1  0
  2 28  1  6
  3  4  1  0
  3 29  1  0
  3 30  1  0
  4  5  1  0
  4 26  1  0
  4 31  1  6
  5  6  2  0
  5 10  1  0
  6  7  1  0
  7  8  2  0
  7 20  1  0
  8  9  1  0
  8 32  1  0
  9 10  2  0
  9 33  1  0
 10 11  1  0
 11 12  1  0
 12 13  2  0
 12 19  1  0
 13 14  1  0
 13 34  1  0
 14 15  1  0
 14 16  2  0
 16 17  1  0
 16 35  1  0
 17 18  1  0
 17 19  2  0
 19 36  1  0
 20 21  2  0
 20 22  2  0
 20 23  1  0
 23 24  1  0
 23 25  1  0
 23 37  1  0
 26 38  1  0
 26 39  1  0
 26 40  1  0
M  END
>  <ID>  (30) 
7a

>  <IC50[uM](SPA)>  (30) 
0.047

>  <atom.dprop.PartialCharge>  (30) 
-0.5763778 0.19191892 -0.10800288 -0.0034300126 -0.10376085 0.049816743 -0.3678716 -0.021180175 -0.15949342 0.17759594 -0.25963783 0.12811911 -0.17998444 0.16010395 -0.1318517 -0.17550698 0.06586703 -0.077174485 -0.1526885 1.3257332 -0.6205349 -0.6205349 0.31742695 -0.2250739 -0.2250739 -0.08343746 0.40962797 0.06274449 0.05720824 0.05720824 0.06483212 0.1489706 0.16077968 0.16959982 0.16827193 0.16689554 0.07538244 0.044504248 0.044504248 0.044504248

>  <experimental dG reference units>  (30) 
uM

>  <experimental dG reference field>  (30) 
IC50[uM](SPA)

>  <kJ/mol experimental dG>  (30) 
-42.087519224222106

>  <kcal/mol experimental dG>  (30) 
-10.05915851439343

$$$$
224
     RDKit          3D

 37 39  0  0  0  0  0  0  0  0999 V2000
   27.5892    1.5543  -11.2505 O   0  0  0  0  0  0  0  0  0  0  0  0
   27.1498    0.2833  -11.6710 C   0  0  2  0  0  0  0  0  0  0  0  0
   26.5108    0.3676  -13.0595 C   0  0  0  0  0  0  0  0  0  0  0  0
   25.0274    0.6124  -12.8307 C   0  0  0  0  0  0  0  0  0  0  0  0
   24.7998   -0.0567  -11.4929 C   0  0  0  0  0  0  0  0  0  0  0  0
   26.0087   -0.2305  -10.8088 C   0  0  0  0  0  0  0  0  0  0  0  0
   26.0111   -0.7788   -9.5159 C   0  0  0  0  0  0  0  0  0  0  0  0
   24.7936   -1.0867   -8.9039 C   0  0  0  0  0  0  0  0  0  0  0  0
   23.5969   -0.9365   -9.5976 C   0  0  0  0  0  0  0  0  0  0  0  0
   23.5942   -0.4360  -10.9066 C   0  0  0  0  0  0  0  0  0  0  0  0
   22.4686   -0.2925  -11.6835 O   0  0  0  0  0  0  0  0  0  0  0  0
   21.3282   -0.9881  -11.3963 C   0  0  0  0  0  0  0  0  0  0  0  0
   27.5230   -1.0757   -8.5998 S   0  0  0  0  0  6  0  0  0  0  0  0
   27.2255   -2.0253   -7.5211 O   0  0  0  0  0  0  0  0  0  0  0  0
   28.5744   -1.4184   -9.5570 O   0  0  0  0  0  0  0  0  0  0  0  0
   27.9214    0.6061   -7.8350 C   0  0  0  0  0  0  0  0  0  0  0  0
   26.6364   -0.8101  -13.6721 F   0  0  0  0  0  0  0  0  0  0  0  0
   27.0633    1.3020  -13.8343 F   0  0  0  0  0  0  0  0  0  0  0  0
   29.1867    0.5592   -7.4973 F   0  0  0  0  0  0  0  0  0  0  0  0
   27.7524    1.5709   -8.7021 F   0  0  0  0  0  0  0  0  0  0  0  0
   27.1266    0.7997   -6.7875 F   0  0  0  0  0  0  0  0  0  0  0  0
   21.0786   -2.3612  -11.5124 C   0  0  0  0  0  0  0  0  0  0  0  0
   19.8428   -2.6747  -11.1890 N   0  0  0  0  0  0  0  0  0  0  0  0
   19.2863   -1.5151  -10.8350 N   0  0  0  0  0  0  0  0  0  0  0  0
   20.1395   -0.4523  -10.9690 C   0  0  0  0  0  0  0  0  0  0  0  0
   17.9093   -1.4982  -10.3984 C   0  0  0  0  0  0  0  0  0  0  0  0
   28.3645    1.8361  -11.7694 H   0  0  0  0  0  0  0  0  0  0  0  0
   27.9763   -0.4257  -11.6958 H   0  0  0  0  0  0  0  0  0  0  0  0
   24.8087    1.6838  -12.7839 H   0  0  0  0  0  0  0  0  0  0  0  0
   24.4133    0.1809  -13.6152 H   0  0  0  0  0  0  0  0  0  0  0  0
   24.7772   -1.4629   -7.8914 H   0  0  0  0  0  0  0  0  0  0  0  0
   22.6752   -1.2335   -9.1264 H   0  0  0  0  0  0  0  0  0  0  0  0
   21.7723   -3.1162  -11.8587 H   0  0  0  0  0  0  0  0  0  0  0  0
   19.8418    0.5586  -10.7467 H   0  0  0  0  0  0  0  0  0  0  0  0
   17.2620   -1.8736  -11.1914 H   0  0  0  0  0  0  0  0  0  0  0  0
   17.6284   -0.4741  -10.1584 H   0  0  0  0  0  0  0  0  0  0  0  0
   17.7963   -2.1168   -9.5078 H   0  0  0  0  0  0  0  0  0  0  0  0
  1  2  1  0
  1 27  1  0
  2  3  1  0
  2  6  1  0
  2 28  1  6
  3  4  1  0
  3 17  1  0
  3 18  1  0
  4  5  1  0
  4 29  1  0
  4 30  1  0
  5  6  2  0
  5 10  1  0
  6  7  1  0
  7  8  2  0
  7 13  1  0
  8  9  1  0
  8 31  1  0
  9 10  2  0
  9 32  1  0
 10 11  1  0
 11 12  1  0
 12 22  1  0
 12 25  2  0
 13 14  2  0
 13 15  2  0
 13 16  1  0
 16 19  1  0
 16 20  1  0
 16 21  1  0
 22 23  2  0
 22 33  1  0
 23 24  1  0
 24 25  1  0
 24 26  1  0
 25 34  1  0
 26 35  1  0
 26 36  1  0
 26 37  1  0
M  END
>  <ID>  (31) 
224

>  <IC50[uM](SPA)>  (31) 
0.083000000000000004

>  <atom.dprop.PartialCharge>  (31) 
-0.5594803 0.15295191 0.402559 -0.054703128 -0.1179613 0.047288753 -0.40706828 -0.0063069984 -0.14925492 0.17416972 -0.18901429 -0.068633474 1.348127 -0.602514 -0.602514 0.5953622 -0.22393087 -0.22393087 -0.24121876 -0.24121876 -0.24121876 0.27123705 -0.4920384 0.10013301 -0.16417901 0.04426416 0.41933602 0.08954225 0.09286615 0.09286615 0.15367186 0.16003582 0.060522243 0.18691042 0.06444748 0.06444748 0.06444748

>  <experimental dG reference units>  (31) 
uM

>  <experimental dG reference field>  (31) 
IC50[uM](SPA)

>  <kJ/mol experimental dG>  (31) 
-40.66899791164313

>  <kcal/mol experimental dG>  (31) 
-9.72012378385352

$$$$
84
     RDKit          3D

 33 35  0  0  0  0  0  0  0  0999 V2000
   27.1519    0.2532  -11.6800 C   0  0  0  0  0  0  0  0  0  0  0  0
   26.5130    0.7426  -12.8412 O   0  0  0  0  0  0  0  0  0  0  0  0
   25.1762    0.6269  -12.7600 C   0  0  0  0  0  0  0  0  0  0  0  0
   24.8499   -0.0311  -11.4770 C   0  0  0  0  0  0  0  0  0  0  0  0
   26.0340   -0.2215  -10.7968 C   0  0  0  0  0  0  0  0  0  0  0  0
   26.0242   -0.7693   -9.5082 C   0  0  0  0  0  0  0  0  0  0  0  0
   24.8040   -1.0944   -8.9127 C   0  0  0  0  0  0  0  0  0  0  0  0
   23.6145   -0.9327   -9.6143 C   0  0  0  0  0  0  0  0  0  0  0  0
   23.6192   -0.4161  -10.9195 C   0  0  0  0  0  0  0  0  0  0  0  0
   22.4850   -0.2560  -11.6856 O   0  0  0  0  0  0  0  0  0  0  0  0
   21.2418   -0.5594  -11.1731 C   0  0  0  0  0  0  0  0  0  0  0  0
   20.6764   -1.8121  -11.3952 C   0  0  0  0  0  0  0  0  0  0  0  0
   19.4207   -2.1058  -10.8708 C   0  0  0  0  0  0  0  0  0  0  0  0
   18.8527   -3.3055  -11.0912 F   0  0  0  0  0  0  0  0  0  0  0  0
   18.7389   -1.1582  -10.1193 C   0  0  0  0  0  0  0  0  0  0  0  0
   19.2846    0.1056   -9.9175 C   0  0  0  0  0  0  0  0  0  0  0  0
   18.4076    1.3130   -9.0524 Cl  0  0  0  0  0  0  0  0  0  0  0  0
   20.5427    0.3982  -10.4386 C   0  0  0  0  0  0  0  0  0  0  0  0
   27.5368   -1.0620   -8.6071 S   0  0  0  0  0  6  0  0  0  0  0  0
   27.2401   -2.0061   -7.5205 O   0  0  0  0  0  0  0  0  0  0  0  0
   28.5629   -1.4048   -9.5884 O   0  0  0  0  0  0  0  0  0  0  0  0
   27.9655    0.6177   -7.8733 C   0  0  0  0  0  0  0  0  0  0  0  0
   27.8644    1.5436   -8.8222 F   0  0  0  0  0  0  0  0  0  0  0  0
   27.1261    0.8718   -6.8704 F   0  0  0  0  0  0  0  0  0  0  0  0
   24.4444    1.0443  -13.6419 O   0  0  0  0  0  0  0  0  0  0  0  0
   27.7351    1.0614  -11.2340 H   0  0  0  0  0  0  0  0  0  0  0  0
   27.8490   -0.5450  -11.9454 H   0  0  0  0  0  0  0  0  0  0  0  0
   24.7810   -1.4921   -7.9071 H   0  0  0  0  0  0  0  0  0  0  0  0
   22.6871   -1.2236   -9.1360 H   0  0  0  0  0  0  0  0  0  0  0  0
   21.2083   -2.5725  -11.9463 H   0  0  0  0  0  0  0  0  0  0  0  0
   17.8032   -1.4332   -9.6854 H   0  0  0  0  0  0  0  0  0  0  0  0
   20.9779    1.3673  -10.2624 H   0  0  0  0  0  0  0  0  0  0  0  0
   28.9894    0.5501   -7.5409 H   0  0  0  0  0  0  0  0  0  0  0  0
  1  2  1  0
  1  5  1  0
  1 26  1  0
  1 27  1  0
  2  3  1  0
  3  4  1  0
  3 25  2  0
  4  5  2  0
  4  9  1  0
  5  6  1  0
  6  7  2  0
  6 19  1  0
  7  8  1  0
  7 28  1  0
  8  9  2  0
  8 29  1  0
  9 10  1  0
 10 11  1  0
 11 12  2  0
 11 18  1  0
 12 13  1  0
 12 30  1  0
 13 14  1  0
 13 15  2  0
 15 16  1  0
 15 31  1  0
 16 17  1  0
 16 18  2  0
 18 32  1  0
 19 20  2  0
 19 21  2  0
 19 22  1  0
 22 23  1  0
 22 24  1  0
 22 33  1  0
M  END
>  <ID>  (32) 
84

>  <IC50[uM](SPA)>  (32) 
2.7999999999999998

>  <atom.dprop.PartialCharge>  (32) 
0.14656124 -0.4094726 0.7624487 -0.25756007 0.06103801 -0.42465553 0.042873606 -0.20901142 0.2587497 -0.21194983 0.120283395 -0.16712302 0.16466111 -0.12797576 -0.17163125 0.07056816 -0.073298454 -0.14002785 1.3447497 -0.61732274 -0.61732274 0.32016456 -0.22100228 -0.22100228 -0.5384394 0.09979297 0.09979297 0.15243293 0.1674404 0.17356232 0.17214775 0.1710008 0.07952679

>  <experimental dG reference units>  (32) 
uM

>  <experimental dG reference field>  (32) 
IC50[uM](SPA)

>  <kJ/mol experimental dG>  (32) 
-31.892530573438655

>  <kcal/mol experimental dG>  (32) 
-7.622497746997766

$$$$
254
     RDKit          3D

 40 42  0  0  0  0  0  0  0  0999 V2000
   27.5290    1.5702  -11.4140 O   0  0  0  0  0  0  0  0  0  0  0  0
   27.1452    0.2616  -11.7016 C   0  0  2  0  0  0  0  0  0  0  0  0
   26.5035    0.3509  -13.0777 C   0  0  0  0  0  0  0  0  0  0  0  0
   25.0278    0.6163  -12.8283 C   0  0  0  0  0  0  0  0  0  0  0  0
   24.8030   -0.0491  -11.4879 C   0  0  0  0  0  0  0  0  0  0  0  0
   26.0132   -0.2224  -10.8071 C   0  0  0  0  0  0  0  0  0  0  0  0
   26.0189   -0.7643   -9.5084 C   0  0  0  0  0  0  0  0  0  0  0  0
   24.8007   -1.0836   -8.9010 C   0  0  0  0  0  0  0  0  0  0  0  0
   23.6021   -0.9380   -9.5968 C   0  0  0  0  0  0  0  0  0  0  0  0
   23.6010   -0.4271  -10.9002 C   0  0  0  0  0  0  0  0  0  0  0  0
   22.4865   -0.2951  -11.6981 O   0  0  0  0  0  0  0  0  0  0  0  0
   21.2462   -0.5782  -11.2011 C   0  0  0  0  0  0  0  0  0  0  0  0
   20.6750   -1.8342  -11.4016 C   0  0  0  0  0  0  0  0  0  0  0  0
   19.4231   -2.1130  -10.8638 C   0  0  0  0  0  0  0  0  0  0  0  0
   18.8605   -3.3235  -11.0484 F   0  0  0  0  0  0  0  0  0  0  0  0
   18.7415   -1.1394  -10.1398 C   0  0  0  0  0  0  0  0  0  0  0  0
   19.2943    0.1296   -9.9653 C   0  0  0  0  0  0  0  0  0  0  0  0
   18.5740    1.1648   -9.2440 C   0  0  0  0  0  0  0  0  0  0  0  0
   20.5558    0.3964  -10.4841 C   0  0  0  0  0  0  0  0  0  0  0  0
   27.5377   -1.0695   -8.5948 S   0  0  0  0  0  6  0  0  0  0  0  0
   27.2346   -2.0117   -7.5154 O   0  0  0  0  0  0  0  0  0  0  0  0
   28.5882   -1.4038   -9.5540 O   0  0  0  0  0  0  0  0  0  0  0  0
   27.9451    0.4615   -7.8301 N   0  0  0  0  0  0  0  0  0  0  0  0
   27.0549    1.2897  -13.8570 F   0  0  0  0  0  0  0  0  0  0  0  0
   26.6287   -0.8235  -13.6847 F   0  0  0  0  0  0  0  0  0  0  0  0
   18.0045    1.9857   -8.6629 N   0  0  0  0  0  0  0  0  0  0  0  0
   28.5002    1.5466   -8.6218 C   0  0  0  0  0  0  0  0  0  0  0  0
   28.4232    1.7635  -11.7473 H   0  0  0  0  0  0  0  0  0  0  0  0
   27.9845   -0.4335  -11.6910 H   0  0  0  0  0  0  0  0  0  0  0  0
   24.4120    0.1762  -13.6053 H   0  0  0  0  0  0  0  0  0  0  0  0
   24.8119    1.6889  -12.7872 H   0  0  0  0  0  0  0  0  0  0  0  0
   24.7814   -1.4584   -7.8884 H   0  0  0  0  0  0  0  0  0  0  0  0
   22.6799   -1.2369   -9.1253 H   0  0  0  0  0  0  0  0  0  0  0  0
   21.2052   -2.5946  -11.9528 H   0  0  0  0  0  0  0  0  0  0  0  0
   17.7929   -1.3901   -9.7095 H   0  0  0  0  0  0  0  0  0  0  0  0
   21.0125    1.3565  -10.3126 H   0  0  0  0  0  0  0  0  0  0  0  0
   28.3572    0.4001   -6.9030 H   0  0  0  0  0  0  0  0  0  0  0  0
   28.5305    2.4836   -8.0830 H   0  0  0  0  0  0  0  0  0  0  0  0
   27.7869    1.7713   -9.3533 H   0  0  0  0  0  0  0  0  0  0  0  0
   29.4618    1.2797   -9.0473 H   0  0  0  0  0  0  0  0  0  0  0  0
  1  2  1  0
  1 28  1  0
  2  3  1  0
  2  6  1  0
  2 29  1  6
  3  4  1  0
  3 24  1  0
  3 25  1  0
  4  5  1  0
  4 30  1  0
  4 31  1  0
  5  6  2  0
  5 10  1  0
  6  7  1  0
  7  8  2  0
  7 20  1  0
  8  9  1  0
  8 32  1  0
  9 10  2  0
  9 33  1  0
 10 11  1  0
 11 12  1  0
 12 13  2  0
 12 19  1  0
 13 14  1  0
 13 34  1  0
 14 15  1  0
 14 16  2  0
 16 17  1  0
 16 35  1  0
 17 18  1  0
 17 19  2  0
 18 26  3  0
 19 36  1  0
 20 21  2  0
 20 22  2  0
 20 23  1  0
 23 27  1  0
 23 37  1  0
 27 38  1  0
 27 39  1  0
 27 40  1  0
M  END
>  <ID>  (33) 
254

>  <IC50[uM](SPA)>  (33) 
0.10000000000000001

>  <atom.dprop.PartialCharge>  (33) 
-0.56558716 0.13960126 0.39699242 -0.057534788 -0.13220309 0.03371588 -0.3488799 -0.013755601 -0.1707088 0.18698516 -0.2482694 0.12896472 -0.18218209 0.14892223 -0.13056949 -0.14703089 0.04104828 0.23005867 -0.12245629 1.5366367 -0.65490204 -0.65490204 -0.91262215 -0.2261163 -0.2261163 -0.3412928 0.21416666 0.41779172 0.0834908 0.09060077 0.09060077 0.1490891 0.1592596 0.1688888 0.16850232 0.16574714 0.4492792 0.044928834 0.044928834 0.044928834

>  <experimental dG reference units>  (33) 
uM

>  <experimental dG reference field>  (33) 
IC50[uM](SPA)

>  <kJ/mol experimental dG>  (33) 
-40.204226101545885

>  <kcal/mol experimental dG>  (33) 
-9.609040655245192

$$$$
23
     RDKit          3D

 38 40  0  0  0  0  0  0  0  0999 V2000
   27.5798    1.5235  -11.1849 O   0  0  0  0  0  0  0  0  0  0  0  0
   27.1359    0.2965  -11.6771 C   0  0  2  0  0  0  0  0  0  0  0  0
   26.5177    0.4046  -13.0685 C   0  0  1  0  0  0  0  0  0  0  0  0
   25.0171    0.5901  -12.8411 C   0  0  0  0  0  0  0  0  0  0  0  0
   24.8195   -0.0696  -11.5047 C   0  0  0  0  0  0  0  0  0  0  0  0
   26.0204   -0.2306  -10.8289 C   0  0  0  0  0  0  0  0  0  0  0  0
   26.0077   -0.7642   -9.5085 C   0  0  0  0  0  0  0  0  0  0  0  0
   24.8269   -1.0884   -8.9088 C   0  0  0  0  0  0  0  0  0  0  0  0
   23.5995   -0.9354   -9.6045 C   0  0  0  0  0  0  0  0  0  0  0  0
   23.5962   -0.4510  -10.8982 C   0  0  0  0  0  0  0  0  0  0  0  0
   22.4844   -0.2684  -11.6800 O   0  0  0  0  0  0  0  0  0  0  0  0
   21.2404   -0.5613  -11.1739 C   0  0  0  0  0  0  0  0  0  0  0  0
   20.5576    0.3996  -10.4453 C   0  0  0  0  0  0  0  0  0  0  0  0
   19.2837    0.1051   -9.9375 C   0  0  0  0  0  0  0  0  0  0  0  0
   18.6058    1.0679   -9.2497 F   0  0  0  0  0  0  0  0  0  0  0  0
   18.7338   -1.1345  -10.1306 C   0  0  0  0  0  0  0  0  0  0  0  0
   19.4232   -2.1096  -10.8804 C   0  0  0  0  0  0  0  0  0  0  0  0
   18.8528   -3.3134  -11.0758 F   0  0  0  0  0  0  0  0  0  0  0  0
   20.6704   -1.8200  -11.3967 C   0  0  0  0  0  0  0  0  0  0  0  0
   27.5347   -1.0647   -8.5760 S   0  0  0  0  0  6  0  0  0  0  0  0
   27.2199   -2.0185   -7.5306 O   0  0  0  0  0  0  0  0  0  0  0  0
   28.5959   -1.3615   -9.5279 O   0  0  0  0  0  0  0  0  0  0  0  0
   27.9440    0.6097   -7.7719 C   0  0  0  0  0  0  0  0  0  0  0  0
   27.8264    1.5664   -8.6650 F   0  0  0  0  0  0  0  0  0  0  0  0
   27.0972    0.7943   -6.7402 F   0  0  0  0  0  0  0  0  0  0  0  0
   27.0792    1.3725  -13.8825 O   0  0  0  0  0  0  0  0  0  0  0  0
   28.4196    1.7763  -11.5732 H   0  0  0  0  0  0  0  0  0  0  0  0
   27.9878   -0.3852  -11.7231 H   0  0  0  0  0  0  0  0  0  0  0  0
   26.6601   -0.5701  -13.6036 H   0  0  0  0  0  0  0  0  0  0  0  0
   24.7751    1.6572  -12.7727 H   0  0  0  0  0  0  0  0  0  0  0  0
   24.4463    0.1629  -13.6523 H   0  0  0  0  0  0  0  0  0  0  0  0
   24.7825   -1.4708   -7.9005 H   0  0  0  0  0  0  0  0  0  0  0  0
   22.6825   -1.2208   -9.1092 H   0  0  0  0  0  0  0  0  0  0  0  0
   20.9920    1.3609  -10.2837 H   0  0  0  0  0  0  0  0  0  0  0  0
   17.7876   -1.4003   -9.6966 H   0  0  0  0  0  0  0  0  0  0  0  0
   21.2084   -2.5776  -11.9529 H   0  0  0  0  0  0  0  0  0  0  0  0
   28.9652    0.5721   -7.4332 H   0  0  0  0  0  0  0  0  0  0  0  0
   27.6651    1.9280  -13.3465 H   0  0  0  0  0  0  0  0  0  0  0  0
  1  2  1  0
  1 27  1  0
  2  3  1  0
  2  6  1  0
  2 28  1  6
  3  4  1  0
  3 26  1  0
  3 29  1  6
  4  5  1  0
  4 30  1  0
  4 31  1  0
  5  6  2  0
  5 10  1  0
  6  7  1  0
  7  8  2  0
  7 20  1  0
  8  9  1  0
  8 32  1  0
  9 10  2  0
  9 33  1  0
 10 11  1  0
 11 12  1  0
 12 13  2  0
 12 19  1  0
 13 14  1  0
 13 34  1  0
 14 15  1  0
 14 16  2  0
 16 17  1  0
 16 35  1  0
 17 18  1  0
 17 19  2  0
 19 36  1  0
 20 21  2  0
 20 22  2  0
 20 23  1  0
 23 24  1  0
 23 25  1  0
 23 37  1  0
 26 38  1  0
M  END
>  <ID>  (34) 
23

>  <IC50[uM](SPA)>  (34) 
6.5999999999999996

>  <atom.dprop.PartialCharge>  (34) 
-0.57579494 0.18389139 0.1171453 -0.028284136 -0.11233799 0.043372415 -0.37979853 -0.014775224 -0.1641861 0.19371697 -0.25180483 0.13821958 -0.18963106 0.17358291 -0.13145374 -0.21359348 0.17358291 -0.13145374 -0.18963106 1.3266422 -0.620175 -0.620175 0.31676883 -0.22491746 -0.22491746 -0.5788016 0.4123818 0.08151363 0.04968338 0.067835286 0.067835286 0.14836547 0.16099156 0.16969529 0.17173582 0.16969529 0.07553885 0.40953702

>  <experimental dG reference units>  (34) 
uM

>  <experimental dG reference field>  (34) 
IC50[uM](SPA)

>  <kJ/mol experimental dG>  (34) 
-29.753746703514178

>  <kcal/mol experimental dG>  (34) 
-7.111316133727097

$$$$
251
     RDKit          3D

 39 41  0  0  0  0  0  0  0  0999 V2000
   27.4945    1.5901  -11.4326 O   0  0  0  0  0  0  0  0  0  0  0  0
   27.1374    0.2686  -11.7191 C   0  0  2  0  0  0  0  0  0  0  0  0
   26.4953    0.3323  -13.0981 C   0  0  0  0  0  0  0  0  0  0  0  0
   25.0217    0.5994  -12.8429 C   0  0  0  0  0  0  0  0  0  0  0  0
   24.8020   -0.0597  -11.4964 C   0  0  0  0  0  0  0  0  0  0  0  0
   26.0153   -0.2255  -10.8167 C   0  0  0  0  0  0  0  0  0  0  0  0
   26.0241   -0.7593   -9.5118 C   0  0  0  0  0  0  0  0  0  0  0  0
   24.8061   -1.0787   -8.9024 C   0  0  0  0  0  0  0  0  0  0  0  0
   23.6060   -0.9317   -9.5932 C   0  0  0  0  0  0  0  0  0  0  0  0
   23.6016   -0.4258  -10.8989 C   0  0  0  0  0  0  0  0  0  0  0  0
   22.4847   -0.2873  -11.6913 O   0  0  0  0  0  0  0  0  0  0  0  0
   21.2447   -0.5730  -11.1948 C   0  0  0  0  0  0  0  0  0  0  0  0
   20.5522    0.3978  -10.4720 C   0  0  0  0  0  0  0  0  0  0  0  0
   19.2931    0.1248   -9.9600 C   0  0  0  0  0  0  0  0  0  0  0  0
   18.6203    1.0830   -9.2845 F   0  0  0  0  0  0  0  0  0  0  0  0
   18.7413   -1.1375  -10.1417 C   0  0  0  0  0  0  0  0  0  0  0  0
   19.4210   -2.1088  -10.8684 C   0  0  0  0  0  0  0  0  0  0  0  0
   18.8530   -3.3145  -11.0601 F   0  0  0  0  0  0  0  0  0  0  0  0
   20.6751   -1.8286  -11.4013 C   0  0  0  0  0  0  0  0  0  0  0  0
   27.5391   -1.0647   -8.5878 S   0  0  0  0  0  6  0  0  0  0  0  0
   28.5975   -1.3882   -9.5392 O   0  0  0  0  0  0  0  0  0  0  0  0
   27.2312   -2.0153   -7.5145 O   0  0  0  0  0  0  0  0  0  0  0  0
   27.9407    0.4584   -7.8059 N   0  0  0  0  0  0  0  0  0  0  0  0
   27.0378    1.2658  -13.8907 F   0  0  0  0  0  0  0  0  0  0  0  0
   26.6284   -0.8376  -13.6973 F   0  0  0  0  0  0  0  0  0  0  0  0
   28.4928    1.5464   -8.6066 C   0  0  0  0  0  0  0  0  0  0  0  0
   28.3741    1.7859  -11.8038 H   0  0  0  0  0  0  0  0  0  0  0  0
   27.9892   -0.4124  -11.7122 H   0  0  0  0  0  0  0  0  0  0  0  0
   24.8113    1.6720  -12.7864 H   0  0  0  0  0  0  0  0  0  0  0  0
   24.3984    0.1783  -13.6254 H   0  0  0  0  0  0  0  0  0  0  0  0
   24.7828   -1.4635   -7.8934 H   0  0  0  0  0  0  0  0  0  0  0  0
   22.6875   -1.2371   -9.1179 H   0  0  0  0  0  0  0  0  0  0  0  0
   20.9875    1.3612  -10.2718 H   0  0  0  0  0  0  0  0  0  0  0  0
   17.7955   -1.3802   -9.7072 H   0  0  0  0  0  0  0  0  0  0  0  0
   21.2077   -2.5898  -11.9503 H   0  0  0  0  0  0  0  0  0  0  0  0
   28.3589    0.3734   -6.8803 H   0  0  0  0  0  0  0  0  0  0  0  0
   28.5484    2.4694   -8.0394 H   0  0  0  0  0  0  0  0  0  0  0  0
   27.7523    1.7872   -9.3272 H   0  0  0  0  0  0  0  0  0  0  0  0
   29.4721    1.2647   -9.0380 H   0  0  0  0  0  0  0  0  0  0  0  0
  1  2  1  0
  1 27  1  0
  2  3  1  0
  2  6  1  0
  2 28  1  6
  3  4  1  0
  3 24  1  0
  3 25  1  0
  4  5  1  0
  4 29  1  0
  4 30  1  0
  5  6  2  0
  5 10  1  0
  6  7  1  0
  7  8  2  0
  7 20  1  0
  8  9  1  0
  8 31  1  0
  9 10  2  0
  9 32  1  0
 10 11  1  0
 11 12  1  0
 12 13  2  0
 12 19  1  0
 13 14  1  0
 13 33  1  0
 14 15  1  0
 14 16  2  0
 16 17  1  0
 16 34  1  0
 17 18  1  0
 17 19  2  0
 19 35  1  0
 20 21  2  0
 20 22  2  0
 20 23  1  0
 23 26  1  0
 23 36  1  0
 26 37  1  0
 26 38  1  0
 26 39  1  0
M  END
>  <ID>  (35) 
251

>  <IC50[uM](SPA)>  (35) 
0.031

>  <atom.dprop.PartialCharge>  (35) 
-0.5656116 0.13957684 0.396968 -0.057559215 -0.13110903 0.03369146 -0.34890434 -0.013780028 -0.17012712 0.18526189 -0.2523657 0.13910545 -0.19046149 0.17275259 -0.1322842 -0.2144239 0.17275259 -0.1322842 -0.19046149 1.5366123 -0.6549265 -0.6549265 -0.9126466 -0.22614072 -0.22614072 0.21414223 0.41776732 0.083466366 0.090576336 0.090576336 0.14906466 0.15923518 0.16886488 0.17090541 0.16886488 0.44925475 0.044904407 0.044904407 0.044904407

>  <experimental dG reference units>  (35) 
uM

>  <experimental dG reference field>  (35) 
IC50[uM](SPA)

>  <kJ/mol experimental dG>  (35) 
-43.12557031083077

>  <kcal/mol experimental dG>  (35) 
-10.307258678496837

$$$$
256
     RDKit          3D

 36 38  0  0  0  0  0  0  0  0999 V2000
   27.6349    1.5390  -11.1120 O   0  0  0  0  0  0  0  0  0  0  0  0
   27.1610    0.3080  -11.6434 C   0  0  2  0  0  0  0  0  0  0  0  0
   26.5246    0.3818  -13.0435 C   0  0  0  0  0  0  0  0  0  0  0  0
   25.0349    0.5918  -12.8363 C   0  0  0  0  0  0  0  0  0  0  0  0
   24.8128   -0.0780  -11.4926 C   0  0  0  0  0  0  0  0  0  0  0  0
   26.0207   -0.2330  -10.7985 C   0  0  0  0  0  0  0  0  0  0  0  0
   26.0265   -0.7616   -9.4949 C   0  0  0  0  0  0  0  0  0  0  0  0
   24.8081   -1.0797   -8.8934 C   0  0  0  0  0  0  0  0  0  0  0  0
   23.6071   -0.9271   -9.5818 C   0  0  0  0  0  0  0  0  0  0  0  0
   23.6051   -0.4285  -10.8927 C   0  0  0  0  0  0  0  0  0  0  0  0
   22.4843   -0.2729  -11.6739 O   0  0  0  0  0  0  0  0  0  0  0  0
   21.2426   -0.5644  -11.1778 C   0  0  0  0  0  0  0  0  0  0  0  0
   20.5460    0.3947  -10.4507 C   0  0  0  0  0  0  0  0  0  0  0  0
   19.2853    0.1164   -9.9393 C   0  0  0  0  0  0  0  0  0  0  0  0
   18.6069    1.0601   -9.2520 F   0  0  0  0  0  0  0  0  0  0  0  0
   18.7375   -1.1466  -10.1378 C   0  0  0  0  0  0  0  0  0  0  0  0
   19.4161   -2.1029  -10.8774 C   0  0  0  0  0  0  0  0  0  0  0  0
   18.8465   -3.3080  -11.0783 F   0  0  0  0  0  0  0  0  0  0  0  0
   20.6729   -1.8221  -11.4011 C   0  0  0  0  0  0  0  0  0  0  0  0
   27.5432   -1.0730   -8.5723 S   0  0  0  0  0  6  0  0  0  0  0  0
   28.5992   -1.4076   -9.5147 O   0  0  0  0  0  0  0  0  0  0  0  0
   27.2219   -1.9934   -7.4762 O   0  0  0  0  0  0  0  0  0  0  0  0
   27.9698    0.4559   -7.8597 N   0  0  0  0  0  0  0  0  0  0  0  0
   27.0650    1.3224  -13.8196 F   0  0  0  0  0  0  0  0  0  0  0  0
   26.6750   -0.7960  -13.6529 F   0  0  0  0  0  0  0  0  0  0  0  0
   28.3650    1.8699  -11.6666 H   0  0  0  0  0  0  0  0  0  0  0  0
   27.9821   -0.4047  -11.7081 H   0  0  0  0  0  0  0  0  0  0  0  0
   24.7980    1.6524  -12.7661 H   0  0  0  0  0  0  0  0  0  0  0  0
   24.4281    0.1890  -13.6510 H   0  0  0  0  0  0  0  0  0  0  0  0
   24.7791   -1.4795   -7.8909 H   0  0  0  0  0  0  0  0  0  0  0  0
   22.6905   -1.2302   -9.1017 H   0  0  0  0  0  0  0  0  0  0  0  0
   20.9792    1.3620  -10.2594 H   0  0  0  0  0  0  0  0  0  0  0  0
   17.8013   -1.4072   -9.6924 H   0  0  0  0  0  0  0  0  0  0  0  0
   21.2096   -2.5824  -11.9444 H   0  0  0  0  0  0  0  0  0  0  0  0
   27.3130    0.7844   -7.1551 H   0  0  0  0  0  0  0  0  0  0  0  0
   28.2244    1.1712   -8.5468 H   0  0  0  0  0  0  0  0  0  0  0  0
  1  2  1  0
  1 26  1  0
  2  3  1  0
  2  6  1  0
  2 27  1  6
  3  4  1  0
  3 24  1  0
  3 25  1  0
  4  5  1  0
  4 28  1  0
  4 29  1  0
  5  6  2  0
  5 10  1  0
  6  7  1  0
  7  8  2  0
  7 20  1  0
  8  9  1  0
  8 30  1  0
  9 10  2  0
  9 31  1  0
 10 11  1  0
 11 12  1  0
 12 13  2  0
 12 19  1  0
 13 14  1  0
 13 32  1  0
 14 15  1  0
 14 16  2  0
 16 17  1  0
 16 33  1  0
 17 18  1  0
 17 19  2  0
 19 34  1  0
 20 21  2  0
 20 22  2  0
 20 23  1  0
 23 35  1  0
 23 36  1  0
M  END
>  <ID>  (36) 
256

>  <IC50[uM](SPA)>  (36) 
0.014999999999999999

>  <atom.dprop.PartialCharge>  (36) 
-0.5655241 0.14030918 0.39778838 -0.057817247 -0.13019946 0.033840865 -0.35257423 -0.017896358 -0.16736826 0.18332945 -0.2516529 0.13981818 -0.18974866 0.17346534 -0.13157132 -0.21371107 0.17346534 -0.13157132 -0.18974866 1.5401897 -0.6504741 -0.6504741 -1.028024 -0.22542778 -0.22542778 0.41848013 0.083866596 0.09128916 0.09128916 0.14088418 0.15954435 0.16957769 0.17161824 0.16957769 0.45043862 0.45043862

>  <experimental dG reference units>  (36) 
uM

>  <experimental dG reference field>  (36) 
IC50[uM](SPA)

>  <kJ/mol experimental dG>  (36) 
-44.93631371696951

>  <kcal/mol experimental dG>  (36) 
-10.740036739237453

$$$$
50
     RDKit          3D

 33 34  0  0  0  0  0  0  0  0999 V2000
   27.3390    0.1920  -11.4897 C   0  0  0  0  0  0  0  0  0  0  0  0
   24.8115   -0.0320  -11.4904 C   0  0  0  0  0  0  0  0  0  0  0  0
   26.0318   -0.2159  -10.8097 C   0  0  0  0  0  0  0  0  0  0  0  0
   26.0227   -0.7765   -9.5149 C   0  0  0  0  0  0  0  0  0  0  0  0
   24.7999   -1.0827   -8.9074 C   0  0  0  0  0  0  0  0  0  0  0  0
   23.6041   -0.9361   -9.6042 C   0  0  0  0  0  0  0  0  0  0  0  0
   23.6047   -0.4331  -10.9129 C   0  0  0  0  0  0  0  0  0  0  0  0
   22.4696   -0.3076  -11.6887 O   0  0  0  0  0  0  0  0  0  0  0  0
   21.2371   -0.5820  -11.1896 C   0  0  0  0  0  0  0  0  0  0  0  0
   20.6706   -1.8347  -11.4004 C   0  0  0  0  0  0  0  0  0  0  0  0
   19.4200   -2.1133  -10.8631 C   0  0  0  0  0  0  0  0  0  0  0  0
   18.7409   -1.1381  -10.1380 C   0  0  0  0  0  0  0  0  0  0  0  0
   19.2928    0.1262   -9.9592 C   0  0  0  0  0  0  0  0  0  0  0  0
   18.4329    1.3500   -9.0987 Cl  0  0  0  0  0  0  0  0  0  0  0  0
   20.5510    0.3973  -10.4761 C   0  0  0  0  0  0  0  0  0  0  0  0
   27.5371   -1.0872   -8.5685 S   0  0  0  0  0  6  0  0  0  0  0  0
   27.2050   -2.0060   -7.4766 O   0  0  0  0  0  0  0  0  0  0  0  0
   27.9344    0.6067   -7.8551 C   0  0  0  0  0  0  0  0  0  0  0  0
   24.7666    0.6009  -12.8075 C   0  0  0  0  0  0  0  0  0  0  0  0
   24.7316    1.1052  -13.8442 N   0  0  0  0  0  0  0  0  0  0  0  0
   18.8585   -3.3227  -11.0488 F   0  0  0  0  0  0  0  0  0  0  0  0
   28.6335   -1.4776   -9.4489 O   0  0  0  0  0  0  0  0  0  0  0  0
   28.1506   -0.4789  -11.3067 H   0  0  0  0  0  0  0  0  0  0  0  0
   27.6428    1.1924  -11.1938 H   0  0  0  0  0  0  0  0  0  0  0  0
   27.3039    0.1099  -12.5710 H   0  0  0  0  0  0  0  0  0  0  0  0
   24.7642   -1.4526   -7.8916 H   0  0  0  0  0  0  0  0  0  0  0  0
   22.6854   -1.2290   -9.1184 H   0  0  0  0  0  0  0  0  0  0  0  0
   21.2054   -2.5880  -11.9589 H   0  0  0  0  0  0  0  0  0  0  0  0
   17.7935   -1.3751   -9.7040 H   0  0  0  0  0  0  0  0  0  0  0  0
   20.9967    1.3605  -10.2973 H   0  0  0  0  0  0  0  0  0  0  0  0
   28.8630    0.5151   -7.3041 H   0  0  0  0  0  0  0  0  0  0  0  0
   27.1256    0.9197   -7.1987 H   0  0  0  0  0  0  0  0  0  0  0  0
   28.0617    1.3257   -8.6644 H   0  0  0  0  0  0  0  0  0  0  0  0
  1  3  1  0
  1 23  1  0
  1 24  1  0
  1 25  1  0
  2  3  2  0
  2  7  1  0
  2 19  1  0
  3  4  1  0
  4  5  2  0
  4 16  1  0
  5  6  1  0
  5 26  1  0
  6  7  2  0
  6 27  1  0
  7  8  1  0
  8  9  1  0
  9 10  2  0
  9 15  1  0
 10 11  1  0
 10 28  1  0
 11 12  2  0
 11 21  1  0
 12 13  1  0
 12 29  1  0
 13 14  1  0
 13 15  2  0
 15 30  1  0
 16 17  2  0
 16 18  1  0
 16 22  2  0
 18 31  1  0
 18 32  1  0
 18 33  1  0
 19 20  3  0
M  END
>  <ID>  (37) 
50

>  <IC50[uM](SPA)>  (37) 
0.078

>  <atom.dprop.PartialCharge>  (37) 
-0.098600045 -0.07581396 0.12100704 -0.42314467 0.004834056 -0.19717522 0.2264742 -0.22919703 0.11680785 -0.17623779 0.160968 -0.17730817 0.06668662 -0.07764737 -0.14868708 1.407177 -0.6533768 -0.36201826 0.24111454 -0.3479257 -0.13227306 -0.6533768 0.07446621 0.07446621 0.07446621 0.16425732 0.165829 0.16880022 0.1681248 0.16634871 0.11698468 0.11698468 0.11698468

>  <experimental dG reference units>  (37) 
uM

>  <experimental dG reference field>  (37) 
IC50[uM](SPA)

>  <kJ/mol experimental dG>  (37) 
-40.82397652883289

>  <kcal/mol experimental dG>  (37) 
-9.757164562340556

$$$$
231
     RDKit          3D

 38 40  0  0  0  0  0  0  0  0999 V2000
   27.8943    1.1788  -11.0631 O   0  0  0  0  0  0  0  0  0  0  0  0
   27.1609    0.1641  -11.7029 C   0  0  2  0  0  0  0  0  0  0  0  0
   26.4962    0.6274  -13.0105 C   0  0  1  0  0  0  0  0  0  0  0  0
   25.0720    0.1050  -12.9974 C   0  0  0  0  0  0  0  0  0  0  0  0
   24.8103   -0.1873  -11.5381 C   0  0  0  0  0  0  0  0  0  0  0  0
   26.0092   -0.2725  -10.8246 C   0  0  0  0  0  0  0  0  0  0  0  0
   26.0063   -0.6974   -9.4871 C   0  0  0  0  0  0  0  0  0  0  0  0
   24.7861   -0.9464   -8.8596 C   0  0  0  0  0  0  0  0  0  0  0  0
   23.5916   -0.8530   -9.5671 C   0  0  0  0  0  0  0  0  0  0  0  0
   23.6031   -0.5017  -10.9219 C   0  0  0  0  0  0  0  0  0  0  0  0
   22.4930   -0.4333  -11.7294 O   0  0  0  0  0  0  0  0  0  0  0  0
   21.2454   -0.6638  -11.2213 C   0  0  0  0  0  0  0  0  0  0  0  0
   20.6244   -1.8866  -11.4633 C   0  0  0  0  0  0  0  0  0  0  0  0
   19.3585   -2.1311  -10.9427 C   0  0  0  0  0  0  0  0  0  0  0  0
   18.7399   -3.3039  -11.1763 F   0  0  0  0  0  0  0  0  0  0  0  0
   18.7159   -1.1569  -10.1866 C   0  0  0  0  0  0  0  0  0  0  0  0
   19.3156    0.0868   -9.9795 C   0  0  0  0  0  0  0  0  0  0  0  0
   18.6351    1.1380   -9.2464 C   0  0  0  0  0  0  0  0  0  0  0  0
   20.5951    0.3214  -10.4759 C   0  0  0  0  0  0  0  0  0  0  0  0
   27.5155   -0.9389   -8.5422 S   0  0  0  0  0  6  0  0  0  0  0  0
   27.2187   -1.8839   -7.4633 O   0  0  0  0  0  0  0  0  0  0  0  0
   28.6096   -1.2396   -9.4636 O   0  0  0  0  0  0  0  0  0  0  0  0
   27.8361    0.7467   -7.7905 C   0  0  0  0  0  0  0  0  0  0  0  0
   26.3889    1.9565  -13.0245 F   0  0  0  0  0  0  0  0  0  0  0  0
   18.0971    1.9749   -8.6636 N   0  0  0  0  0  0  0  0  0  0  0  0
   28.5017    1.6054  -11.6875 H   0  0  0  0  0  0  0  0  0  0  0  0
   27.8028   -0.6923  -11.9073 H   0  0  0  0  0  0  0  0  0  0  0  0
   27.0542    0.3687  -13.9106 H   0  0  0  0  0  0  0  0  0  0  0  0
   25.0170   -0.8251  -13.5618 H   0  0  0  0  0  0  0  0  0  0  0  0
   24.3529    0.7937  -13.4436 H   0  0  0  0  0  0  0  0  0  0  0  0
   24.7564   -1.2393   -7.8226 H   0  0  0  0  0  0  0  0  0  0  0  0
   22.6707   -1.0996   -9.0644 H   0  0  0  0  0  0  0  0  0  0  0  0
   21.1293   -2.6489  -12.0348 H   0  0  0  0  0  0  0  0  0  0  0  0
   17.7656   -1.4057   -9.7616 H   0  0  0  0  0  0  0  0  0  0  0  0
   21.0858    1.2560  -10.2638 H   0  0  0  0  0  0  0  0  0  0  0  0
   28.8700    0.7613   -7.4646 H   0  0  0  0  0  0  0  0  0  0  0  0
   27.1544    0.8944   -6.9586 H   0  0  0  0  0  0  0  0  0  0  0  0
   27.6817    1.5165   -8.5435 H   0  0  0  0  0  0  0  0  0  0  0  0
  1  2  1  0
  1 26  1  0
  2  3  1  0
  2  6  1  0
  2 27  1  6
  3  4  1  0
  3 24  1  0
  3 28  1  6
  4  5  1  0
  4 29  1  0
  4 30  1  0
  5  6  2  0
  5 10  1  0
  6  7  1  0
  7  8  2  0
  7 20  1  0
  8  9  1  0
  8 31  1  0
  9 10  2  0
  9 32  1  0
 10 11  1  0
 11 12  1  0
 12 13  2  0
 12 19  1  0
 13 14  1  0
 13 33  1  0
 14 15  1  0
 14 16  2  0
 16 17  1  0
 16 34  1  0
 17 18  1  0
 17 19  2  0
 18 25  3  0
 19 35  1  0
 20 21  2  0
 20 22  2  0
 20 23  1  0
 23 36  1  0
 23 37  1  0
 23 38  1  0
M  END
>  <ID>  (38) 
231

>  <IC50[uM](SPA)>  (38) 
0.044999999999999998

>  <atom.dprop.PartialCharge>  (38) 
-0.5685704 0.16782121 0.11675265 -0.038321666 -0.113903895 0.03316409 -0.3429905 -0.02177513 -0.16732734 0.18329181 -0.24999985 0.12723714 -0.18220745 0.14889689 -0.13059485 -0.14705625 0.04102292 0.23003331 -0.122481644 1.4014951 -0.65397 -0.65397 -0.36029556 -0.22447494 -0.34131816 0.41107216 0.070514336 0.07138319 0.07623237 0.07623237 0.15216608 0.1586956 0.16886345 0.16847695 0.16572177 0.11672807 0.11672807 0.11672807

>  <experimental dG reference units>  (38) 
uM

>  <experimental dG reference field>  (38) 
IC50[uM](SPA)

>  <kJ/mol experimental dG>  (38) 
-42.19598645945485

>  <kcal/mol experimental dG>  (38) 
-10.085082805797049

$$$$
15
     RDKit          3D

 38 40  0  0  0  0  0  0  0  0999 V2000
   27.5645    1.5617  -11.2470 O   0  0  0  0  0  0  0  0  0  0  0  0
   27.1438    0.2894  -11.6866 C   0  0  2  0  0  0  0  0  0  0  0  0
   26.5069    0.3556  -13.0757 C   0  0  0  0  0  0  0  0  0  0  0  0
   25.0262    0.5977  -12.8413 C   0  0  0  0  0  0  0  0  0  0  0  0
   24.8031   -0.0727  -11.5007 C   0  0  0  0  0  0  0  0  0  0  0  0
   26.0146   -0.2359  -10.8163 C   0  0  0  0  0  0  0  0  0  0  0  0
   26.0213   -0.7692   -9.5151 C   0  0  0  0  0  0  0  0  0  0  0  0
   24.8049   -1.0873   -8.9042 C   0  0  0  0  0  0  0  0  0  0  0  0
   23.6051   -0.9368   -9.5930 C   0  0  0  0  0  0  0  0  0  0  0  0
   23.6014   -0.4415  -10.9017 C   0  0  0  0  0  0  0  0  0  0  0  0
   22.4836   -0.2868  -11.6891 O   0  0  0  0  0  0  0  0  0  0  0  0
   21.2430   -0.5721  -11.1917 C   0  0  0  0  0  0  0  0  0  0  0  0
   20.6758   -1.8287  -11.4014 C   0  0  0  0  0  0  0  0  0  0  0  0
   19.4200   -2.1085  -10.8706 C   0  0  0  0  0  0  0  0  0  0  0  0
   18.8549   -3.3186  -11.0589 F   0  0  0  0  0  0  0  0  0  0  0  0
   18.7372   -1.1390  -10.1439 C   0  0  0  0  0  0  0  0  0  0  0  0
   19.2837    0.1313   -9.9594 C   0  0  0  0  0  0  0  0  0  0  0  0
   18.5786    1.1709   -9.2254 C   0  0  0  0  0  0  0  0  0  0  0  0
   20.5524    0.3981  -10.4669 C   0  0  0  0  0  0  0  0  0  0  0  0
   27.5332   -1.0635   -8.5894 S   0  0  0  0  0  6  0  0  0  0  0  0
   27.2225   -2.0202   -7.5218 O   0  0  0  0  0  0  0  0  0  0  0  0
   28.5866   -1.4048   -9.5424 O   0  0  0  0  0  0  0  0  0  0  0  0
   27.9649    0.6070   -7.8096 C   0  0  0  0  0  0  0  0  0  0  0  0
   27.9127    1.5706   -8.7312 F   0  0  0  0  0  0  0  0  0  0  0  0
   27.1075    0.8491   -6.8159 F   0  0  0  0  0  0  0  0  0  0  0  0
   27.0532    1.2940  -13.8508 F   0  0  0  0  0  0  0  0  0  0  0  0
   26.6473   -0.8235  -13.6788 F   0  0  0  0  0  0  0  0  0  0  0  0
   18.0226    1.9829   -8.6098 N   0  0  0  0  0  0  0  0  0  0  0  0
   28.3466    1.8345  -11.7534 H   0  0  0  0  0  0  0  0  0  0  0  0
   27.9838   -0.4055  -11.7093 H   0  0  0  0  0  0  0  0  0  0  0  0
   24.4086    0.1833  -13.6391 H   0  0  0  0  0  0  0  0  0  0  0  0
   24.8053    1.6637  -12.7779 H   0  0  0  0  0  0  0  0  0  0  0  0
   24.7815   -1.4717   -7.8954 H   0  0  0  0  0  0  0  0  0  0  0  0
   22.6864   -1.2351   -9.1095 H   0  0  0  0  0  0  0  0  0  0  0  0
   21.2089   -2.5934  -11.9466 H   0  0  0  0  0  0  0  0  0  0  0  0
   17.7966   -1.4127   -9.7040 H   0  0  0  0  0  0  0  0  0  0  0  0
   21.0132    1.3531  -10.2641 H   0  0  0  0  0  0  0  0  0  0  0  0
   28.9783    0.5461   -7.4245 H   0  0  0  0  0  0  0  0  0  0  0  0
  1  2  1  0
  1 29  1  0
  2  3  1  0
  2  6  1  0
  2 30  1  6
  3  4  1  0
  3 26  1  0
  3 27  1  0
  4  5  1  0
  4 31  1  0
  4 32  1  0
  5  6  2  0
  5 10  1  0
  6  7  1  0
  7  8  2  0
  7 20  1  0
  8  9  1  0
  8 33  1  0
  9 10  2  0
  9 34  1  0
 10 11  1  0
 11 12  1  0
 12 13  2  0
 12 19  1  0
 13 14  1  0
 13 35  1  0
 14 15  1  0
 14 16  2  0
 16 17  1  0
 16 36  1  0
 17 18  1  0
 17 19  2  0
 18 28  3  0
 19 37  1  0
 20 21  2  0
 20 22  2  0
 20 23  1  0
 23 24  1  0
 23 25  1  0
 23 38  1  0
M  END
>  <ID>  (39) 
15

>  <IC50[uM](SPA)>  (39) 
0.0080000000000000002

>  <atom.dprop.PartialCharge>  (39) 
-0.5617275 0.14850947 0.39972448 -0.053503163 -0.122825675 0.038730733 -0.37737322 -0.007828962 -0.16157073 0.1983105 -0.24803853 0.13068958 -0.180457 0.15064715 -0.12884432 -0.14530589 0.042773187 0.23178382 -0.120731264 1.3308371 -0.61836046 -0.61836046 0.31843117 -0.22399819 -0.22399819 -0.22470416 -0.22470416 -0.33956772 0.41863626 0.08775882 0.09222291 0.09222291 0.15273248 0.16311748 0.1706139 0.17022741 0.16747221 0.07645793

>  <experimental dG reference units>  (39) 
uM

>  <experimental dG reference field>  (39) 
IC50[uM](SPA)

>  <kJ/mol experimental dG>  (39) 
-46.504285840978106

>  <kcal/mol experimental dG>  (39) 
-11.11479107097947

$$$$
124
     RDKit          3D

 32 33  0  0  0  0  0  0  0  0999 V2000
   24.8310   -0.0580  -11.4927 C   0  0  0  0  0  0  0  0  0  0  0  0
   26.0235   -0.2330  -10.7891 C   0  0  0  0  0  0  0  0  0  0  0  0
   25.9987   -0.7743   -9.5096 C   0  0  0  0  0  0  0  0  0  0  0  0
   24.7856   -1.0874   -8.8994 C   0  0  0  0  0  0  0  0  0  0  0  0
   23.6010   -0.9335   -9.6065 C   0  0  0  0  0  0  0  0  0  0  0  0
   23.6090   -0.4396  -10.9170 C   0  0  0  0  0  0  0  0  0  0  0  0
   22.4819   -0.2891  -11.6902 O   0  0  0  0  0  0  0  0  0  0  0  0
   21.2436   -0.5778  -11.1838 C   0  0  0  0  0  0  0  0  0  0  0  0
   20.6717   -1.8245  -11.3930 C   0  0  0  0  0  0  0  0  0  0  0  0
   19.4142   -2.1154  -10.8705 C   0  0  0  0  0  0  0  0  0  0  0  0
   18.7356   -1.1376  -10.1307 C   0  0  0  0  0  0  0  0  0  0  0  0
   19.2836    0.1166   -9.9443 C   0  0  0  0  0  0  0  0  0  0  0  0
   18.4182    1.3429   -9.0771 Cl  0  0  0  0  0  0  0  0  0  0  0  0
   20.5528    0.3972  -10.4460 C   0  0  0  0  0  0  0  0  0  0  0  0
   27.5088   -1.0841   -8.6332 S   0  0  0  0  0  6  0  0  0  0  0  0
   27.2224   -2.0236   -7.5339 O   0  0  0  0  0  0  0  0  0  0  0  0
   28.5286   -1.4187   -9.6099 O   0  0  0  0  0  0  0  0  0  0  0  0
   27.9364    0.5884   -7.9114 C   0  0  0  0  0  0  0  0  0  0  0  0
   27.0434    0.9305   -6.9901 F   0  0  0  0  0  0  0  0  0  0  0  0
   29.1248    0.3945   -7.3800 F   0  0  0  0  0  0  0  0  0  0  0  0
   24.8632    0.5892  -12.8609 C   0  0  0  0  0  0  0  0  0  0  0  0
   18.8482   -3.3161  -11.0632 F   0  0  0  0  0  0  0  0  0  0  0  0
   28.0161    1.4963   -8.8897 F   0  0  0  0  0  0  0  0  0  0  0  0
   24.9720    1.8976  -12.6428 F   0  0  0  0  0  0  0  0  0  0  0  0
   25.8923    0.1745  -13.6008 F   0  0  0  0  0  0  0  0  0  0  0  0
   26.9738    0.0481  -11.2370 H   0  0  0  0  0  0  0  0  0  0  0  0
   24.7621   -1.4743   -7.8944 H   0  0  0  0  0  0  0  0  0  0  0  0
   22.6769   -1.2285   -9.1344 H   0  0  0  0  0  0  0  0  0  0  0  0
   21.2027   -2.5903  -11.9465 H   0  0  0  0  0  0  0  0  0  0  0  0
   17.7913   -1.4073   -9.6929 H   0  0  0  0  0  0  0  0  0  0  0  0
   20.9858    1.3555  -10.2466 H   0  0  0  0  0  0  0  0  0  0  0  0
   23.9655    0.4033  -13.4518 H   0  0  0  0  0  0  0  0  0  0  0  0
  1  2  2  0
  1  6  1  0
  1 21  1  0
  2  3  1  0
  2 26  1  0
  3  4  2  0
  3 15  1  0
  4  5  1  0
  4 27  1  0
  5  6  2  0
  5 28  1  0
  6  7  1  0
  7  8  1  0
  8  9  2  0
  8 14  1  0
  9 10  1  0
  9 29  1  0
 10 11  2  0
 10 22  1  0
 11 12  1  0
 11 30  1  0
 12 13  1  0
 12 14  2  0
 14 31  1  0
 15 16  2  0
 15 17  2  0
 15 18  1  0
 18 19  1  0
 18 20  1  0
 18 23  1  0
 21 24  1  0
 21 25  1  0
 21 32  1  0
M  END
>  <ID>  (40) 
124

>  <IC50[uM](SPA)>  (40) 
0.037999999999999999

>  <atom.dprop.PartialCharge>  (40) 
-0.19627304 0.06793712 -0.49349788 0.03256897 -0.17815568 0.21943422 -0.22555937 0.12687112 -0.17414951 0.15892199 -0.17669462 0.064185955 -0.07703378 -0.14695004 1.3538301 -0.60106885 -0.60106885 0.59618294 -0.24255753 -0.24255753 0.49151888 -0.1316595 -0.24255753 -0.23095039 -0.23095039 0.1739713 0.16254748 0.16360915 0.16899934 0.16873835 0.1662578 0.07610977

>  <experimental dG reference units>  (40) 
uM

>  <experimental dG reference field>  (40) 
IC50[uM](SPA)

>  <kJ/mol experimental dG>  (40) 
-42.61772257200248

>  <kcal/mol experimental dG>  (40) 
-10.185880155832331

$$$$
25
     RDKit          3D

 36 38  0  0  0  0  0  0  0  0999 V2000
   27.5859    1.5623  -11.2324 O   0  0  0  0  0  0  0  0  0  0  0  0
   27.1492    0.2971  -11.6733 C   0  0  2  0  0  0  0  0  0  0  0  0
   26.5076    0.3637  -13.0705 C   0  0  0  0  0  0  0  0  0  0  0  0
   25.0245    0.6054  -12.8334 C   0  0  0  0  0  0  0  0  0  0  0  0
   24.7996   -0.0551  -11.4938 C   0  0  0  0  0  0  0  0  0  0  0  0
   26.0078   -0.2311  -10.8127 C   0  0  0  0  0  0  0  0  0  0  0  0
   26.0108   -0.7709   -9.5133 C   0  0  0  0  0  0  0  0  0  0  0  0
   24.8035   -1.0874   -8.9001 C   0  0  0  0  0  0  0  0  0  0  0  0
   23.5881   -0.9333   -9.6008 C   0  0  0  0  0  0  0  0  0  0  0  0
   23.5951   -0.4351  -10.8957 C   0  0  0  0  0  0  0  0  0  0  0  0
   22.4690   -0.2899  -11.6964 O   0  0  0  0  0  0  0  0  0  0  0  0
   21.2387   -0.6920  -11.2605 C   0  0  0  0  0  0  0  0  0  0  0  0
   20.3852    0.2262  -10.6417 C   0  0  0  0  0  0  0  0  0  0  0  0
   19.1164   -0.1734  -10.2278 C   0  0  0  0  0  0  0  0  0  0  0  0
   18.0692    0.9590   -9.4559 Cl  0  0  0  0  0  0  0  0  0  0  0  0
   18.7285   -1.4968  -10.4568 C   0  0  0  0  0  0  0  0  0  0  0  0
   19.5276   -2.4069  -11.0647 N   0  0  0  0  0  0  0  0  0  0  0  0
   20.7667   -1.9978  -11.4607 C   0  0  0  0  0  0  0  0  0  0  0  0
   27.5322   -1.0704   -8.5909 S   0  0  0  0  0  6  0  0  0  0  0  0
   27.2287   -2.0196   -7.5193 O   0  0  0  0  0  0  0  0  0  0  0  0
   28.5815   -1.4021   -9.5453 O   0  0  0  0  0  0  0  0  0  0  0  0
   27.9369    0.6210   -7.8282 C   0  0  0  0  0  0  0  0  0  0  0  0
   27.8067    1.5658   -8.7311 F   0  0  0  0  0  0  0  0  0  0  0  0
   27.0921    0.8174   -6.7982 F   0  0  0  0  0  0  0  0  0  0  0  0
   27.0574    1.2966  -13.8388 F   0  0  0  0  0  0  0  0  0  0  0  0
   26.6394   -0.8195  -13.6770 F   0  0  0  0  0  0  0  0  0  0  0  0
   28.3654    1.8186  -11.7483 H   0  0  0  0  0  0  0  0  0  0  0  0
   27.9795   -0.4193  -11.6983 H   0  0  0  0  0  0  0  0  0  0  0  0
   24.8071    1.6777  -12.7817 H   0  0  0  0  0  0  0  0  0  0  0  0
   24.4128    0.1822  -13.6214 H   0  0  0  0  0  0  0  0  0  0  0  0
   24.7768   -1.4645   -7.8942 H   0  0  0  0  0  0  0  0  0  0  0  0
   22.6768   -1.2344   -9.1176 H   0  0  0  0  0  0  0  0  0  0  0  0
   20.7002    1.2442  -10.4779 H   0  0  0  0  0  0  0  0  0  0  0  0
   17.7565   -1.8493  -10.1507 H   0  0  0  0  0  0  0  0  0  0  0  0
   21.3860   -2.7416  -11.9336 H   0  0  0  0  0  0  0  0  0  0  0  0
   28.9749    0.6019   -7.4639 H   0  0  0  0  0  0  0  0  0  0  0  0
  1  2  1  0
  1 27  1  0
  2  3  1  0
  2  6  1  0
  2 28  1  6
  3  4  1  0
  3 25  1  0
  3 26  1  0
  4  5  1  0
  4 29  1  0
  4 30  1  0
  5  6  2  0
  5 10  1  0
  6  7  1  0
  7  8  2  0
  7 19  1  0
  8  9  1  0
  8 31  1  0
  9 10  2  0
  9 32  1  0
 10 11  1  0
 11 12  1  0
 12 13  2  0
 12 18  1  0
 13 14  1  0
 13 33  1  0
 14 15  1  0
 14 16  2  0
 16 17  1  0
 16 34  1  0
 17 18  2  0
 18 35  1  0
 19 20  2  0
 19 21  2  0
 19 22  1  0
 22 23  1  0
 22 24  1  0
 22 36  1  0
M  END
>  <ID>  (41) 
25

>  <IC50[uM](SPA)>  (41) 
0.029000000000000001

>  <atom.dprop.PartialCharge>  (41) 
-0.5618223 0.14841469 0.39962968 -0.052664418 -0.123028085 0.039649464 -0.37746802 -0.0065212213 -0.16338436 0.19269538 -0.2480188 0.00079777837 -0.11669173 -0.07249436 -0.06718704 0.40362838 -0.6429709 0.39498907 1.3307424 -0.6184553 -0.6184553 0.3183364 -0.22409302 -0.22409302 -0.22479898 -0.22479898 0.41854146 0.087664016 0.092128105 0.092128105 0.15263768 0.1638096 0.16653004 0.044065326 0.04419499 0.07636313

>  <experimental dG reference units>  (41) 
uM

>  <experimental dG reference field>  (41) 
IC50[uM](SPA)

>  <kJ/mol experimental dG>  (41) 
-43.291922165133606

>  <kcal/mol experimental dG>  (41) 
-10.347017725892353

$$$$
163
     RDKit          3D

 38 40  0  0  0  0  0  0  0  0999 V2000
   27.5787    1.5603  -11.1550 O   0  0  0  0  0  0  0  0  0  0  0  0
   27.1514    0.3087  -11.6602 C   0  0  2  0  0  0  0  0  0  0  0  0
   26.5211    0.3751  -13.0576 C   0  0  0  0  0  0  0  0  0  0  0  0
   25.0338    0.5863  -12.8456 C   0  0  0  0  0  0  0  0  0  0  0  0
   24.8061   -0.0850  -11.5041 C   0  0  0  0  0  0  0  0  0  0  0  0
   26.0164   -0.2498  -10.8166 C   0  0  0  0  0  0  0  0  0  0  0  0
   26.0198   -0.7868   -9.5184 C   0  0  0  0  0  0  0  0  0  0  0  0
   24.8022   -1.0984   -8.9082 C   0  0  0  0  0  0  0  0  0  0  0  0
   23.6047   -0.9287   -9.5876 C   0  0  0  0  0  0  0  0  0  0  0  0
   23.6011   -0.4346  -10.8994 C   0  0  0  0  0  0  0  0  0  0  0  0
   22.4804   -0.2663  -11.6771 O   0  0  0  0  0  0  0  0  0  0  0  0
   21.2449   -0.5687  -11.1803 C   0  0  0  0  0  0  0  0  0  0  0  0
   20.6785   -1.8246  -11.3976 C   0  0  0  0  0  0  0  0  0  0  0  0
   19.4221   -2.1093  -10.8761 C   0  0  0  0  0  0  0  0  0  0  0  0
   18.8542   -3.3170  -11.0822 F   0  0  0  0  0  0  0  0  0  0  0  0
   18.7363   -1.1524  -10.1388 C   0  0  0  0  0  0  0  0  0  0  0  0
   19.2883    0.1230   -9.9547 C   0  0  0  0  0  0  0  0  0  0  0  0
   18.5697    1.1665   -9.2401 C   0  0  0  0  0  0  0  0  0  0  0  0
   20.5476    0.3902  -10.4511 C   0  0  0  0  0  0  0  0  0  0  0  0
   27.5198   -1.0658   -8.5788 S   0  0  0  0  0  6  0  0  0  0  0  0
   27.2106   -1.9783   -7.4776 O   0  0  0  0  0  0  0  0  0  0  0  0
   28.5996   -1.4049   -9.5080 O   0  0  0  0  0  0  0  0  0  0  0  0
   27.9060    0.6119   -7.8645 C   0  0  0  0  0  0  0  0  0  0  0  0
   27.0587    1.3217  -13.8292 F   0  0  0  0  0  0  0  0  0  0  0  0
   26.6743   -0.8002  -13.6631 F   0  0  0  0  0  0  0  0  0  0  0  0
   18.0197    2.0048   -8.6626 N   0  0  0  0  0  0  0  0  0  0  0  0
   28.3401    1.8773  -11.6535 H   0  0  0  0  0  0  0  0  0  0  0  0
   27.9965   -0.3807  -11.7030 H   0  0  0  0  0  0  0  0  0  0  0  0
   24.4304    0.1815  -13.6650 H   0  0  0  0  0  0  0  0  0  0  0  0
   24.7949    1.6423  -12.7675 H   0  0  0  0  0  0  0  0  0  0  0  0
   24.7812   -1.4913   -7.9023 H   0  0  0  0  0  0  0  0  0  0  0  0
   22.6852   -1.2202   -9.0977 H   0  0  0  0  0  0  0  0  0  0  0  0
   21.2178   -2.5834  -11.9440 H   0  0  0  0  0  0  0  0  0  0  0  0
   17.7955   -1.4363   -9.7044 H   0  0  0  0  0  0  0  0  0  0  0  0
   21.0080    1.3516  -10.2626 H   0  0  0  0  0  0  0  0  0  0  0  0
   28.9206    0.5438   -7.4820 H   0  0  0  0  0  0  0  0  0  0  0  0
   27.1930    0.8396   -7.0713 H   0  0  0  0  0  0  0  0  0  0  0  0
   27.8723    1.3668   -8.6460 H   0  0  0  0  0  0  0  0  0  0  0  0
  1  2  1  0
  1 27  1  0
  2  3  1  0
  2  6  1  0
  2 28  1  6
  3  4  1  0
  3 24  1  0
  3 25  1  0
  4  5  1  0
  4 29  1  0
  4 30  1  0
  5  6  2  0
  5 10  1  0
  6  7  1  0
  7  8  2  0
  7 20  1  0
  8  9  1  0
  8 31  1  0
  9 10  2  0
  9 32  1  0
 10 11  1  0
 11 12  1  0
 12 13  2  0
 12 19  1  0
 13 14  1  0
 13 33  1  0
 14 15  1  0
 14 16  2  0
 16 17  1  0
 16 34  1  0
 17 18  1  0
 17 19  2  0
 18 26  3  0
 19 35  1  0
 20 21  2  0
 20 22  2  0
 20 23  1  0
 23 36  1  0
 23 37  1  0
 23 38  1  0
M  END
>  <ID>  (42) 
163

>  <IC50[uM](SPA)>  (42) 
0.0085000000000000006

>  <atom.dprop.PartialCharge>  (42) 
-0.564318 0.1445239 0.39717448 -0.057037007 -0.12737542 0.02305616 -0.34942955 -0.013286088 -0.16997197 0.18936801 -0.24906637 0.12966184 -0.18148486 0.1496194 -0.12987223 -0.14633371 0.04174543 0.23075593 -0.121759094 1.4027864 -0.65215814 -0.65215814 -0.35978758 -0.2257322 -0.2257322 -0.34059557 0.4176084 0.085224316 0.09119504 0.09119504 0.15420547 0.16039684 0.16958603 0.16919954 0.16644436 0.117450684 0.117450684 0.117450684

>  <experimental dG reference units>  (42) 
uM

>  <experimental dG reference field>  (42) 
IC50[uM](SPA)

>  <kJ/mol experimental dG>  (42) 
-46.353066611634226

>  <kcal/mol experimental dG>  (42) 
-11.078648807751966

$$$$
