cmpd 5 (1-Butenyl)
     RDKit          3D

 46 48  0  0  1  0  0  0  0  0999 V2000
  -10.9941   -6.2043   12.2035 C   0  0  0  0  0  0  0  0  0  0  0  0
  -12.6220   -6.8961   10.5577 C   0  0  0  0  0  0  0  0  0  0  0  0
  -12.6881   -4.6572   11.3772 C   0  0  0  0  0  0  0  0  0  0  0  0
  -13.7447   -4.3262   10.5887 C   0  0  0  0  0  0  0  0  0  0  0  0
  -14.2919   -5.3537    9.7005 C   0  0  0  0  0  0  0  0  0  0  0  0
  -15.3327   -5.3893    8.7545 C   0  0  0  0  0  0  0  0  0  0  0  0
  -15.3619   -6.6288    8.2267 C   0  0  0  0  0  0  0  0  0  0  0  0
  -13.7074   -6.6286    9.7026 C   0  0  0  0  0  0  0  0  0  0  0  0
  -11.2903   -6.1485   13.6793 C   0  0  0  0  0  0  0  0  0  0  0  0
  -10.9837   -5.0159   15.8471 C   0  0  0  0  0  0  0  0  0  0  0  0
  -10.7531   -5.1546   14.3588 C   0  0  0  0  0  0  0  0  0  0  0  0
  -12.1624   -5.9204   11.3608 N   0  0  0  0  0  0  0  0  0  0  0  0
  -14.3812   -7.3959    8.7850 N   0  0  0  0  0  0  0  0  0  0  0  0
  -12.0977   -8.0137   10.5576 O   0  0  0  0  0  0  0  0  0  0  0  0
  -14.2404   -2.9403   10.5922 C   0  0  0  0  0  0  0  0  0  0  0  0
  -14.4293   -2.2308   11.7756 C   0  0  0  0  0  0  0  0  0  0  0  0
  -14.8581   -0.9215   11.7395 C   0  0  0  0  0  0  0  0  0  0  0  0
  -15.0831   -0.2879   10.5298 C   0  0  0  0  0  0  0  0  0  0  0  0
  -14.8693   -0.9826    9.3381 C   0  0  0  0  0  0  0  0  0  0  0  0
  -14.4469   -2.3108    9.3674 C   0  0  0  0  0  0  0  0  0  0  0  0
  -15.1244   -0.2936    8.0538 C   0  0  0  0  0  0  0  0  0  0  0  0
  -16.1765    0.2899    7.9199 O   0  0  0  0  0  0  0  0  0  0  0  0
  -14.2348   -0.2805    7.0355 N   0  0  0  0  0  0  0  0  0  0  0  0
  -14.5873    0.4334    5.8059 C   0  0  0  0  0  0  0  0  0  0  0  0
  -12.9307   -0.9429    7.1080 C   0  0  0  0  0  0  0  0  0  0  0  0
  -10.5964   -7.1873   11.9512 H   0  0  0  0  0  0  0  0  0  0  0  0
  -10.1977   -5.4984   11.9674 H   0  0  0  0  0  0  0  0  0  0  0  0
  -12.2494   -3.9178   12.0308 H   0  0  0  0  0  0  0  0  0  0  0  0
  -15.9306   -4.5078    8.5761 H   0  0  0  0  0  0  0  0  0  0  0  0
  -16.0962   -6.8785    7.4752 H   0  0  0  0  0  0  0  0  0  0  0  0
  -11.0020   -7.0940   14.1388 H   0  0  0  0  0  0  0  0  0  0  0  0
  -12.3700   -6.1424   13.8283 H   0  0  0  0  0  0  0  0  0  0  0  0
  -10.5362   -4.1957   16.3887 H   0  0  0  0  0  0  0  0  0  0  0  0
  -11.5958   -5.7371   16.3682 H   0  0  0  0  0  0  0  0  0  0  0  0
  -10.1410   -4.4334   13.8377 H   0  0  0  0  0  0  0  0  0  0  0  0
  -14.2636   -8.3558    8.4937 H   0  0  0  0  0  0  0  0  0  0  0  0
  -14.2397   -2.7064   12.7265 H   0  0  0  0  0  0  0  0  0  0  0  0
  -15.0212   -0.3812   12.6603 H   0  0  0  0  0  0  0  0  0  0  0  0
  -15.4219    0.7374   10.5121 H   0  0  0  0  0  0  0  0  0  0  0  0
  -14.2799   -2.8514    8.4474 H   0  0  0  0  0  0  0  0  0  0  0  0
  -13.7703    0.3491    5.0893 H   0  0  0  0  0  0  0  0  0  0  0  0
  -15.4908   -0.0017    5.3789 H   0  0  0  0  0  0  0  0  0  0  0  0
  -14.7634    1.4847    6.0334 H   0  0  0  0  0  0  0  0  0  0  0  0
  -12.3945   -0.7942    6.1707 H   0  0  0  0  0  0  0  0  0  0  0  0
  -12.3521   -0.5184    7.9283 H   0  0  0  0  0  0  0  0  0  0  0  0
  -13.0736   -2.0099    7.2789 H   0  0  0  0  0  0  0  0  0  0  0  0
  1  9  1  0
  1 12  1  0
  1 26  1  0
  1 27  1  0
  2  8  1  0
  2 12  1  0
  2 14  2  0
  3  4  2  0
  3 12  1  0
  3 28  1  0
  4  5  1  0
  4 15  1  0
  5  6  1  0
  5  8  2  0
  6  7  2  0
  6 29  1  0
  7 13  1  0
  7 30  1  0
  8 13  1  0
  9 11  1  0
  9 31  1  0
  9 32  1  0
 10 11  2  0
 10 33  1  0
 10 34  1  0
 11 35  1  0
 13 36  1  0
 15 16  2  0
 15 20  1  0
 16 17  1  0
 16 37  1  0
 17 18  2  0
 17 38  1  0
 18 19  1  0
 18 39  1  0
 19 20  2  0
 19 21  1  0
 20 40  1  0
 21 22  2  0
 21 23  1  0
 23 24  1  0
 23 25  1  0
 24 41  1  0
 24 42  1  0
 24 43  1  0
 25 44  1  0
 25 45  1  0
 25 46  1  0
M  END
>  <i_m_Source_File_Index>  (1) 
1

>  <b_m_subgroup_collapsed>  (1) 
0

>  <r_exp_dg>  (1) 
-7.64

>  <s_m_Source_File>  (1) 
brd41_ASH106_ligands.sdf

>  <s_m_Source_Path>  (1) 
.\waterset

>  <s_m_entry_id>  (1) 
29

>  <s_m_entry_name>  (1) 
brd41_ASH106_ligands.1

>  <s_m_subgroup_title>  (1) 
Waterset->BRD4->brd41_ASH106_ligands

>  <s_m_subgroupid>  (1) 
Waterset->BRD41->brd41_ASH106_ligands

>  <experimental dG reference units>  (1) 
kcal/mol

>  <experimental dG reference field>  (1) 
r_exp_dg

>  <kJ/mol experimental dG>  (1) 
-31.96576

>  <kcal/mol experimental dG>  (1) 
-7.64

>  <AmberAM1BCCCache>  (1) 
gASVxQMAAAAAAABdlCiMFm51bXB5Ll9jb3JlLm11bHRpYXJyYXmUjAZzY2FsYXKUk5SMBW51bXB5lIwFZHR5cGWUk5SMAmY4lImIh5RSlChLA4wBPJROTk5K/////0r/////SwB0lGJDCOozDtISRu8/lIaUUpRoA2gJQwiD29ZHaREhQJSGlFKUaANoCUMID6da6YWOsL+UhpRSlGgDaAlDCLnkGJ3D9uq/lIaUUpRoA2gJQwjHiN56ocrVv5SGlFKUaANoCUMIHco5EcpWA8CUhpRSlGgDaAlDCC0JnMzewvW/lIaUUpRoA2gJQwgCB6LE0PMCwJSGlFKUaANoCUMIq4kib+SC6r+UhpRSlGgDaAlDCAXD8401nwPAlIaUUpRoA2gJQwhDsXus/z4AwJSGlFKUaANoCUMISUQUaekUEMCUhpRSlGgDaAlDCPtbtPp9oPq/lIaUUpRoA2gJQwiCUCiI6+gewJSGlFKUaANoCUMIhcEOlUWH07+UhpRSlGgDaAlDCM9xialOofO/lIaUUpRoA2gJQwjF1YRhi9r5v5SGlFKUaANoCUMIoGP9oiUy9L+UhpRSlGgDaAlDCKGNnpGNpfi/lIaUUpRoA2gJQwgywk15jGzwv5SGlFKUaANoCUMI0Vd/yJDOH0CUhpRSlGgDaAlDCHzy2taXiBzAlIaUUpRoA2gJQwiW1CmiJ5QWwJSGlFKUaANoCUMIC+ejqlxB7j+UhpRSlGgDaAlDCAvno6pcQe4/lIaUUpRoA2gJQwiJ7VTWWPTrP5SGlFKUaANoCUMIie1U1lj06z+UhpRSlGgDaAlDCCKpzb7eWP4/lIaUUpRoA2gJQwgiqc2+3lj+P5SGlFKUaANoCUMI7LzSqdUdAECUhpRSlGgDaAlDCJSJWR4cu+U/lIaUUpRoA2gJQwiUiVkeHLvlP5SGlFKUaANoCUMIAoVIpNqT9T+UhpRSlGgDaAlDCAKFSKTak/U/lIaUUpRoA2gJQwgAa/LCZJ32P5SGlFKUaANoCUMIagAQ7uLCDUCUhpRSlGgDaAlDCMn0DTdkVPs/lIaUUpRoA2gJQwhYH7JK36H5P5SGlFKUaANoCUMIKREmRLYy+j+UhpRSlGgDaAlDCN/h/diCFfw/lIaUUpRoA2gJQwhWW5SQJWPgP5SGlFKUaANoCUMIVluUkCVj4D+UhpRSlGgDaAlDCFZblJAlY+A/lIaUUpRoA2gJQwhWW5SQJWPgP5SGlFKUaANoCUMIVluUkCVj4D+UhpRSlGgDaAlDCFZblJAlY+A/lIaUUpRlLg==

$$$$
cmpd 2 (methyl)
     RDKit          3D

 39 41  0  0  1  0  0  0  0  0999 V2000
  -15.0283   -0.2282   10.5630 C   0  0  0  0  0  0  0  0  0  0  0  0
  -15.1368   -0.2733    8.0696 C   0  0  0  0  0  0  0  0  0  0  0  0
  -14.7198    0.3439    5.7603 C   0  0  0  0  0  0  0  0  0  0  0  0
  -14.7817   -0.8832   11.7588 C   0  0  0  0  0  0  0  0  0  0  0  0
  -14.4577   -2.2640    9.4188 C   0  0  0  0  0  0  0  0  0  0  0  0
  -13.7362   -4.3288   10.5771 C   0  0  0  0  0  0  0  0  0  0  0  0
  -14.3666   -2.2118   11.8043 C   0  0  0  0  0  0  0  0  0  0  0  0
  -12.7286   -4.7073   11.4164 C   0  0  0  0  0  0  0  0  0  0  0  0
  -11.1068   -6.2567   12.3421 C   0  0  0  0  0  0  0  0  0  0  0  0
  -12.1470   -8.0633   10.5910 O   0  0  0  0  0  0  0  0  0  0  0  0
  -12.6441   -6.9321   10.5768 C   0  0  0  0  0  0  0  0  0  0  0  0
  -12.2096   -5.9694   11.4142 N   0  0  0  0  0  0  0  0  0  0  0  0
  -13.6878   -6.6381    9.6828 C   0  0  0  0  0  0  0  0  0  0  0  0
  -14.3346   -7.3857    8.7381 N   0  0  0  0  0  0  0  0  0  0  0  0
  -15.2754   -6.6065    8.1327 C   0  0  0  0  0  0  0  0  0  0  0  0
  -15.2589   -5.3657    8.6641 C   0  0  0  0  0  0  0  0  0  0  0  0
  -14.2569   -5.3477    9.6554 C   0  0  0  0  0  0  0  0  0  0  0  0
  -14.2091   -2.9200   10.6136 C   0  0  0  0  0  0  0  0  0  0  0  0
  -14.8509   -0.9243    9.3684 C   0  0  0  0  0  0  0  0  0  0  0  0
  -16.1952    0.3129    7.9636 O   0  0  0  0  0  0  0  0  0  0  0  0
  -14.3010   -0.3146    7.0006 N   0  0  0  0  0  0  0  0  0  0  0  0
  -12.9810   -0.9677    7.0021 C   0  0  0  0  0  0  0  0  0  0  0  0
  -15.3515    0.8023   10.5684 H   0  0  0  0  0  0  0  0  0  0  0  0
  -13.9448    0.2213    5.0037 H   0  0  0  0  0  0  0  0  0  0  0  0
  -15.6475   -0.1049    5.4054 H   0  0  0  0  0  0  0  0  0  0  0  0
  -14.8789    1.4057    5.9479 H   0  0  0  0  0  0  0  0  0  0  0  0
  -14.9103   -0.3625   12.6962 H   0  0  0  0  0  0  0  0  0  0  0  0
  -14.3493   -2.7895    8.4815 H   0  0  0  0  0  0  0  0  0  0  0  0
  -14.1699   -2.6839   12.7556 H   0  0  0  0  0  0  0  0  0  0  0  0
  -12.3128   -3.9969   12.1156 H   0  0  0  0  0  0  0  0  0  0  0  0
  -10.7975   -7.2958   12.2291 H   0  0  0  0  0  0  0  0  0  0  0  0
  -10.2646   -5.6013   12.1204 H   0  0  0  0  0  0  0  0  0  0  0  0
  -11.4392   -6.0865   13.3662 H   0  0  0  0  0  0  0  0  0  0  0  0
  -14.0763   -8.3515    8.5947 H   0  0  0  0  0  0  0  0  0  0  0  0
  -15.8952   -7.0183    7.3499 H   0  0  0  0  0  0  0  0  0  0  0  0
  -15.9450   -4.6142    8.3024 H   0  0  0  0  0  0  0  0  0  0  0  0
  -12.5183   -0.8554    6.0215 H   0  0  0  0  0  0  0  0  0  0  0  0
  -12.3467   -0.5044    7.7578 H   0  0  0  0  0  0  0  0  0  0  0  0
  -13.0996   -2.0274    7.2280 H   0  0  0  0  0  0  0  0  0  0  0  0
  1  4  2  0
  1 19  1  0
  1 23  1  0
  2 19  1  0
  2 20  2  0
  2 21  1  0
  3 21  1  0
  3 24  1  0
  3 25  1  0
  3 26  1  0
  4  7  1  0
  4 27  1  0
  5 18  1  0
  5 19  2  0
  5 28  1  0
  6  8  2  0
  6 17  1  0
  6 18  1  0
  7 18  2  0
  7 29  1  0
  8 12  1  0
  8 30  1  0
  9 12  1  0
  9 31  1  0
  9 32  1  0
  9 33  1  0
 10 11  2  0
 11 12  1  0
 11 13  1  0
 13 14  1  0
 13 17  2  0
 14 15  1  0
 14 34  1  0
 15 16  2  0
 15 35  1  0
 16 17  1  0
 16 36  1  0
 21 22  1  0
 22 37  1  0
 22 38  1  0
 22 39  1  0
M  END
>  <i_m_Source_File_Index>  (2) 
2

>  <b_m_subgroup_collapsed>  (2) 
0

>  <r_exp_dg>  (2) 
-9.59

>  <s_m_Source_File>  (2) 
brd41_ASH106_ligands.sdf

>  <s_m_Source_Path>  (2) 
path\input_structures\original_structures\waterset

>  <s_m_entry_id>  (2) 
30

>  <s_m_entry_name>  (2) 
brd41_ASH106_ligands.2

>  <s_m_subgroup_title>  (2) 
Waterset->BRD4->brd41_ASH106_ligands

>  <s_m_subgroupid>  (2) 
Waterset->BRD41->brd41_ASH106_ligands

>  <experimental dG reference units>  (2) 
kcal/mol

>  <experimental dG reference field>  (2) 
r_exp_dg

>  <kJ/mol experimental dG>  (2) 
-40.12456

>  <kcal/mol experimental dG>  (2) 
-9.59

>  <AmberAM1BCCCache>  (2) 
gASVQAMAAAAAAABdlCiMFm51bXB5Ll9jb3JlLm11bHRpYXJyYXmUjAZzY2FsYXKUk5SMBW51bXB5lIwFZHR5cGWUk5SMAmY4lImIh5RSlChLA4wBPJROTk5K/////0r/////SwB0lGJDCKILsJ1sMPS/lIaUUpRoA2gJQwgvsJQ127YfQJSGlFKUaANoCUMITJK6XRZ17j+UhpRSlGgDaAlDCMh9N1zS2Pm/lIaUUpRoA2gJQwjuboTLizrwv5SGlFKUaANoCUMIZIC+Ctfu57+UhpRSlGgDaAlDCNEZPKSVn/O/lIaUUpRoA2gJQwid+IOz34S8v5SGlFKUaANoCUMI4iS39mic6D+UhpRSlGgDaAlDCFP58zCP9B7AlIaUUpRoA2gJQwjrBZBdqRchQJSGlFKUaANoCUMIHO3fEY0gEMCUhpRSlGgDaAlDCL5ff5mswgLAlIaUUpRoA2gJQwj+A2f1xJ76v5SGlFKUaANoCUMIL7FOxyXB9b+UhpRSlGgDaAlDCDcl2RGCDQPAlIaUUpRoA2gJQwjoFZkH3ITWv5SGlFKUaANoCUMIuzu5w54C1b+UhpRSlGgDaAlDCKQ1UYzUo/i/lIaUUpRoA2gJQwiUo80Yvj8cwJSGlFKUaANoCUMIOnwUNd2rFsCUhpRSlGgDaAlDCEySul0Wde4/lIaUUpRoA2gJQwgmaXNJbzT6P5SGlFKUaANoCUMIChCz8k824D+UhpRSlGgDaAlDCAoQs/JPNuA/lIaUUpRoA2gJQwgKELPyTzbgP5SGlFKUaANoCUMIVXf/T5ij+T+UhpRSlGgDaAlDCCI1x4aDR/w/lIaUUpRoA2gJQwjGTFs8HVb7P5SGlFKUaANoCUMIOCK3KKII/T+UhpRSlGgDaAlDCBkw7HkdH+Y/lIaUUpRoA2gJQwgZMOx5HR/mP5SGlFKUaANoCUMIGTDseR0f5j+UhpRSlGgDaAlDCGmstnC/ww1AlIaUUpRoA2gJQwjraHkssh4AQJSGlFKUaANoCUMIqvcSFSe7/j+UhpRSlGgDaAlDCAoQs/JPNuA/lIaUUpRoA2gJQwgKELPyTzbgP5SGlFKUaANoCUMIChCz8k824D+UhpRSlGUu

$$$$
cmpd 3 (Allyl)
     RDKit          3D

 43 45  0  0  1  0  0  0  0  0999 V2000
  -10.9941   -6.2043   12.2035 C   0  0  0  0  0  0  0  0  0  0  0  0
  -12.6220   -6.8961   10.5577 C   0  0  0  0  0  0  0  0  0  0  0  0
  -12.6881   -4.6572   11.3772 C   0  0  0  0  0  0  0  0  0  0  0  0
  -13.7447   -4.3262   10.5887 C   0  0  0  0  0  0  0  0  0  0  0  0
  -14.2919   -5.3537    9.7005 C   0  0  0  0  0  0  0  0  0  0  0  0
  -15.3327   -5.3893    8.7545 C   0  0  0  0  0  0  0  0  0  0  0  0
  -15.3619   -6.6288    8.2267 C   0  0  0  0  0  0  0  0  0  0  0  0
  -13.7074   -6.6286    9.7026 C   0  0  0  0  0  0  0  0  0  0  0  0
  -11.2903   -6.1485   13.6793 C   0  0  0  0  0  0  0  0  0  0  0  0
  -10.7531   -5.1546   14.3588 C   0  0  0  0  0  0  0  0  0  0  0  0
  -12.1624   -5.9204   11.3608 N   0  0  0  0  0  0  0  0  0  0  0  0
  -14.3812   -7.3959    8.7850 N   0  0  0  0  0  0  0  0  0  0  0  0
  -12.0977   -8.0137   10.5576 O   0  0  0  0  0  0  0  0  0  0  0  0
  -14.2404   -2.9403   10.5922 C   0  0  0  0  0  0  0  0  0  0  0  0
  -14.4293   -2.2308   11.7756 C   0  0  0  0  0  0  0  0  0  0  0  0
  -14.8581   -0.9215   11.7395 C   0  0  0  0  0  0  0  0  0  0  0  0
  -15.0831   -0.2879   10.5298 C   0  0  0  0  0  0  0  0  0  0  0  0
  -14.8693   -0.9826    9.3381 C   0  0  0  0  0  0  0  0  0  0  0  0
  -14.4469   -2.3108    9.3674 C   0  0  0  0  0  0  0  0  0  0  0  0
  -15.1244   -0.2936    8.0538 C   0  0  0  0  0  0  0  0  0  0  0  0
  -16.1765    0.2899    7.9199 O   0  0  0  0  0  0  0  0  0  0  0  0
  -14.2348   -0.2805    7.0355 N   0  0  0  0  0  0  0  0  0  0  0  0
  -14.5873    0.4334    5.8059 C   0  0  0  0  0  0  0  0  0  0  0  0
  -12.9307   -0.9429    7.1080 C   0  0  0  0  0  0  0  0  0  0  0  0
  -10.5964   -7.1873   11.9512 H   0  0  0  0  0  0  0  0  0  0  0  0
  -10.1977   -5.4984   11.9674 H   0  0  0  0  0  0  0  0  0  0  0  0
  -12.2494   -3.9178   12.0308 H   0  0  0  0  0  0  0  0  0  0  0  0
  -15.9306   -4.5078    8.5761 H   0  0  0  0  0  0  0  0  0  0  0  0
  -16.0962   -6.8785    7.4752 H   0  0  0  0  0  0  0  0  0  0  0  0
  -11.9100   -6.8749   14.1840 H   0  0  0  0  0  0  0  0  0  0  0  0
  -10.1384   -4.4247   13.8530 H   0  0  0  0  0  0  0  0  0  0  0  0
  -14.2636   -8.3558    8.4937 H   0  0  0  0  0  0  0  0  0  0  0  0
  -14.2397   -2.7064   12.7265 H   0  0  0  0  0  0  0  0  0  0  0  0
  -15.0212   -0.3812   12.6603 H   0  0  0  0  0  0  0  0  0  0  0  0
  -15.4219    0.7374   10.5121 H   0  0  0  0  0  0  0  0  0  0  0  0
  -14.2799   -2.8514    8.4474 H   0  0  0  0  0  0  0  0  0  0  0  0
  -13.7703    0.3491    5.0893 H   0  0  0  0  0  0  0  0  0  0  0  0
  -15.4908   -0.0017    5.3789 H   0  0  0  0  0  0  0  0  0  0  0  0
  -14.7634    1.4847    6.0334 H   0  0  0  0  0  0  0  0  0  0  0  0
  -12.3945   -0.7942    6.1707 H   0  0  0  0  0  0  0  0  0  0  0  0
  -12.3521   -0.5184    7.9283 H   0  0  0  0  0  0  0  0  0  0  0  0
  -13.0736   -2.0099    7.2789 H   0  0  0  0  0  0  0  0  0  0  0  0
  -10.9278   -5.0702   15.4212 H   0  0  0  0  0  0  0  0  0  0  0  0
  1  9  1  0
  1 11  1  0
  1 25  1  0
  1 26  1  0
  2  8  1  0
  2 11  1  0
  2 13  2  0
  3  4  2  0
  3 11  1  0
  3 27  1  0
  4  5  1  0
  4 14  1  0
  5  6  1  0
  5  8  2  0
  6  7  2  0
  6 28  1  0
  7 12  1  0
  7 29  1  0
  8 12  1  0
  9 10  2  0
  9 30  1  0
 10 31  1  0
 10 43  1  0
 12 32  1  0
 14 15  2  0
 14 19  1  0
 15 16  1  0
 15 33  1  0
 16 17  2  0
 16 34  1  0
 17 18  1  0
 17 35  1  0
 18 19  2  0
 18 20  1  0
 19 36  1  0
 20 21  2  0
 20 22  1  0
 22 23  1  0
 22 24  1  0
 23 37  1  0
 23 38  1  0
 23 39  1  0
 24 40  1  0
 24 41  1  0
 24 42  1  0
M  END
>  <i_m_Source_File_Index>  (3) 
3

>  <b_m_subgroup_collapsed>  (3) 
0

>  <r_exp_dg>  (3) 
-7.09

>  <s_m_Source_File>  (3) 
brd41_ASH106_ligands.sdf

>  <s_m_Source_Path>  (3) 
path\input_structures\original_structures\waterset

>  <s_m_entry_id>  (3) 
31

>  <s_m_entry_name>  (3) 
brd41_ASH106_ligands.3

>  <s_m_subgroup_title>  (3) 
Waterset->BRD4->brd41_ASH106_ligands

>  <s_m_subgroupid>  (3) 
Waterset->BRD41->brd41_ASH106_ligands

>  <experimental dG reference units>  (3) 
kcal/mol

>  <experimental dG reference field>  (3) 
r_exp_dg

>  <kJ/mol experimental dG>  (3) 
-29.66456

>  <kcal/mol experimental dG>  (3) 
-7.09

>  <AmberAM1BCCCache>  (3) 
gASVjAMAAAAAAABdlCiMFm51bXB5Ll9jb3JlLm11bHRpYXJyYXmUjAZzY2FsYXKUk5SMBW51bXB5lIwFZHR5cGWUk5SMAmY4lImIh5RSlChLA4wBPJROTk5K/////0r/////SwB0lGJDCF/4jrWEZPQ/lIaUUpRoA2gJQwg3/yO6jBchQJSGlFKUaANoCUMIKp7H4baOub+UhpRSlGgDaAlDCLjYbuO/sei/lIaUUpRoA2gJQwiNxvm4rQrYv5SGlFKUaANoCUMIe0mRTmWtAsCUhpRSlGgDaAlDCInrMjrDkfW/lIaUUpRoA2gJQwh1c+mjigsDwJSGlFKUaANoCUMIhfXgoxrxAcCUhpRSlGgDaAlDCBsteUETzwPAlIaUUpRoA2gJQwiy+5hutBQQwJSGlFKUaANoCUMI4jRDufHP+r+UhpRSlGgDaAlDCF4ECkzsDB/AlIaUUpRoA2gJQwggJUqPFEXUv5SGlFKUaANoCUMIJyB0VEeD9b+UhpRSlGgDaAlDCNu8nyYoefm/lIaUUpRoA2gJQwhAQRC5UTH0v5SGlFKUaANoCUMIh2YtUAHV+L+UhpRSlGgDaAlDCDeeEfXXEe2/lIaUUpRoA2gJQwhpoPrCxc4fQJSGlFKUaANoCUMIcK0CHi1kHMCUhpRSlGgDaAlDCNGKzZEEoBbAlIaUUpRoA2gJQwjKK35+BEPuP5SGlFKUaANoCUMIyit+fgRD7j+UhpRSlGgDaAlDCLkHi5aFqO0/lIaUUpRoA2gJQwi5B4uWhajtP5SGlFKUaANoCUMIJeNOXkxo/T+UhpRSlGgDaAlDCL5LB3NjNgBAlIaUUpRoA2gJQwi+SwdzYzYAQJSGlFKUaANoCUMI/Twb3frS+T+UhpRSlGgDaAlDCEmg7woa3fU/lIaUUpRoA2gJQwj1k8gOKasNQJSGlFKUaANoCUMIckYjjGty+T+UhpRSlGgDaAlDCLhBnzSzovk/lIaUUpRoA2gJQwiIMxMuijP6P5SGlFKUaANoCUMI9tTCVyP5/T+UhpRSlGgDaAlDCHJXKNylROA/lIaUUpRoA2gJQwhyVyjcpUTgP5SGlFKUaANoCUMIclco3KVE4D+UhpRSlGgDaAlDCHJXKNylROA/lIaUUpRoA2gJQwhyVyjcpUTgP5SGlFKUaANoCUMIclco3KVE4D+UhpRSlGgDaAlDCEmg7woa3fU/lIaUUpRlLg==

$$$$
cmpd 9 (methoxyethyl)
     RDKit          3D

 46 48  0  0  1  0  0  0  0  0999 V2000
  -10.9941   -6.2043   12.2035 C   0  0  0  0  0  0  0  0  0  0  0  0
  -12.6220   -6.8961   10.5577 C   0  0  0  0  0  0  0  0  0  0  0  0
  -12.6881   -4.6572   11.3772 C   0  0  0  0  0  0  0  0  0  0  0  0
  -13.7447   -4.3262   10.5887 C   0  0  0  0  0  0  0  0  0  0  0  0
  -14.2919   -5.3537    9.7005 C   0  0  0  0  0  0  0  0  0  0  0  0
  -15.3327   -5.3893    8.7545 C   0  0  0  0  0  0  0  0  0  0  0  0
  -15.3619   -6.6288    8.2267 C   0  0  0  0  0  0  0  0  0  0  0  0
  -13.7074   -6.6286    9.7026 C   0  0  0  0  0  0  0  0  0  0  0  0
  -11.2903   -6.1485   13.6793 C   0  0  0  0  0  0  0  0  0  0  0  0
  -10.9078   -4.8802   15.9284 C   0  0  0  0  0  0  0  0  0  0  0  0
  -10.6791   -5.0177   14.4524 O   0  0  0  0  0  0  0  0  0  0  0  0
  -12.1624   -5.9204   11.3608 N   0  0  0  0  0  0  0  0  0  0  0  0
  -14.3812   -7.3959    8.7850 N   0  0  0  0  0  0  0  0  0  0  0  0
  -12.0977   -8.0137   10.5576 O   0  0  0  0  0  0  0  0  0  0  0  0
  -14.2404   -2.9403   10.5922 C   0  0  0  0  0  0  0  0  0  0  0  0
  -14.4293   -2.2308   11.7756 C   0  0  0  0  0  0  0  0  0  0  0  0
  -14.8581   -0.9215   11.7395 C   0  0  0  0  0  0  0  0  0  0  0  0
  -15.0831   -0.2879   10.5298 C   0  0  0  0  0  0  0  0  0  0  0  0
  -14.8693   -0.9826    9.3381 C   0  0  0  0  0  0  0  0  0  0  0  0
  -14.4469   -2.3108    9.3674 C   0  0  0  0  0  0  0  0  0  0  0  0
  -15.1244   -0.2936    8.0538 C   0  0  0  0  0  0  0  0  0  0  0  0
  -16.1765    0.2899    7.9199 O   0  0  0  0  0  0  0  0  0  0  0  0
  -14.2348   -0.2805    7.0355 N   0  0  0  0  0  0  0  0  0  0  0  0
  -14.5873    0.4334    5.8059 C   0  0  0  0  0  0  0  0  0  0  0  0
  -12.9307   -0.9429    7.1080 C   0  0  0  0  0  0  0  0  0  0  0  0
  -10.5964   -7.1873   11.9512 H   0  0  0  0  0  0  0  0  0  0  0  0
  -10.1977   -5.4984   11.9674 H   0  0  0  0  0  0  0  0  0  0  0  0
  -12.2494   -3.9178   12.0308 H   0  0  0  0  0  0  0  0  0  0  0  0
  -15.9306   -4.5078    8.5761 H   0  0  0  0  0  0  0  0  0  0  0  0
  -16.0962   -6.8785    7.4752 H   0  0  0  0  0  0  0  0  0  0  0  0
  -11.0020   -7.0940   14.1388 H   0  0  0  0  0  0  0  0  0  0  0  0
  -12.3700   -6.1424   13.8283 H   0  0  0  0  0  0  0  0  0  0  0  0
  -10.3813   -4.0001   16.2978 H   0  0  0  0  0  0  0  0  0  0  0  0
  -11.9749   -4.7727   16.1228 H   0  0  0  0  0  0  0  0  0  0  0  0
  -10.5336   -5.7676   16.4388 H   0  0  0  0  0  0  0  0  0  0  0  0
  -14.2636   -8.3558    8.4937 H   0  0  0  0  0  0  0  0  0  0  0  0
  -14.2397   -2.7064   12.7265 H   0  0  0  0  0  0  0  0  0  0  0  0
  -15.0212   -0.3812   12.6603 H   0  0  0  0  0  0  0  0  0  0  0  0
  -15.4219    0.7374   10.5121 H   0  0  0  0  0  0  0  0  0  0  0  0
  -14.2799   -2.8514    8.4474 H   0  0  0  0  0  0  0  0  0  0  0  0
  -13.7703    0.3491    5.0893 H   0  0  0  0  0  0  0  0  0  0  0  0
  -15.4908   -0.0017    5.3789 H   0  0  0  0  0  0  0  0  0  0  0  0
  -14.7634    1.4847    6.0334 H   0  0  0  0  0  0  0  0  0  0  0  0
  -12.3945   -0.7942    6.1707 H   0  0  0  0  0  0  0  0  0  0  0  0
  -12.3521   -0.5184    7.9283 H   0  0  0  0  0  0  0  0  0  0  0  0
  -13.0736   -2.0099    7.2789 H   0  0  0  0  0  0  0  0  0  0  0  0
  1  9  1  0
  1 12  1  0
  1 26  1  0
  1 27  1  0
  2  8  1  0
  2 12  1  0
  2 14  2  0
  3  4  2  0
  3 12  1  0
  3 28  1  0
  4  5  1  0
  4 15  1  0
  5  6  1  0
  5  8  2  0
  6  7  2  0
  6 29  1  0
  7 13  1  0
  7 30  1  0
  8 13  1  0
  9 11  1  0
  9 31  1  0
  9 32  1  0
 10 11  1  0
 10 33  1  0
 10 34  1  0
 10 35  1  0
 13 36  1  0
 15 16  2  0
 15 20  1  0
 16 17  1  0
 16 37  1  0
 17 18  2  0
 17 38  1  0
 18 19  1  0
 18 39  1  0
 19 20  2  0
 19 21  1  0
 20 40  1  0
 21 22  2  0
 21 23  1  0
 23 24  1  0
 23 25  1  0
 24 41  1  0
 24 42  1  0
 24 43  1  0
 25 44  1  0
 25 45  1  0
 25 46  1  0
M  END
>  <i_m_Source_File_Index>  (4) 
4

>  <b_m_subgroup_collapsed>  (4) 
0

>  <r_exp_dg>  (4) 
-7.22

>  <s_m_Source_File>  (4) 
brd41_ASH106_ligands.sdf

>  <s_m_Source_Path>  (4) 
path\input_structures\original_structures\waterset

>  <s_m_entry_id>  (4) 
32

>  <s_m_entry_name>  (4) 
brd41_ASH106_ligands.4

>  <s_m_subgroup_title>  (4) 
Waterset->BRD4->brd41_ASH106_ligands

>  <s_m_subgroupid>  (4) 
Waterset->BRD41->brd41_ASH106_ligands

>  <experimental dG reference units>  (4) 
kcal/mol

>  <experimental dG reference field>  (4) 
r_exp_dg

>  <kJ/mol experimental dG>  (4) 
-30.20848

>  <kcal/mol experimental dG>  (4) 
-7.22

>  <AmberAM1BCCCache>  (4) 
gASVxQMAAAAAAABdlCiMFm51bXB5Ll9jb3JlLm11bHRpYXJyYXmUjAZzY2FsYXKUk5SMBW51bXB5lIwFZHR5cGWUk5SMAmY4lImIh5RSlChLA4wBPJROTk5K/////0r/////SwB0lGJDCBWQ61O/ruw/lIaUUpRoA2gJQwiLrHC4OxghQJSGlFKUaANoCUMI9z+xM70ytr+UhpRSlGgDaAlDCKndg0INKeq/lIaUUpRoA2gJQwjrQYSrkHLWv5SGlFKUaANoCUMI/IXSToA7A8CUhpRSlGgDaAlDCDF8SfCSvPW/lIaUUpRoA2gJQwiDwHjWqvACwJSGlFKUaANoCUMI95n37VxD9D+UhpRSlGgDaAlDCA82jmilNPY/lIaUUpRoA2gJQwgoqI6OLeATwJSGlFKUaANoCUMICqH/cVYTEMCUhpRSlGgDaAlDCP/OYR4ymvq/lIaUUpRoA2gJQwjOsLbSIsMewJSGlFKUaANoCUMIvmekZ1Pw1L+UhpRSlGgDaAlDCNLkNs0Cm/O/lIaUUpRoA2gJQwjISDKFP9T5v5SGlFKUaANoCUMIo9aqxtkr9L+UhpRSlGgDaAlDCKQATLVBn/i/lIaUUpRoA2gJQwjwOX/0+DXwv5SGlFKUaANoCUMIPvx01RHEH0CUhpRSlGgDaAlDCJpRiAvhbhzAlIaUUpRoA2gJQwhXMRWrlJIWwJSGlFKUaANoCUMIBQFJY/RN7j+UhpRSlGgDaAlDCAUBSWP0Te4/lIaUUpRoA2gJQwhgzQ5ZsCvwP5SGlFKUaANoCUMIYM0OWbAr8D+UhpRSlGgDaAlDCKksGOy5v/4/lIaUUpRoA2gJQwgeNiCbKl/+P5SGlFKUaANoCUMIawP8l/sgAECUhpRSlGgDaAlDCOy3NliS2dw/lIaUUpRoA2gJQwjstzZYktncP5SGlFKUaANoCUMId3jr0xQ32z+UhpRSlGgDaAlDCHd469MUN9s/lIaUUpRoA2gJQwh3eOvTFDfbP5SGlFKUaANoCUMI6EY53AjGDUCUhpRSlGgDaAlDCICG5GpoKvs/lIaUUpRoA2gJQwhVrAQnK6j5P5SGlFKUaANoCUMIJp54IAI5+j+UhpRSlGgDaAlDCCFqzF0WTPw/lIaUUpRoA2gJQwitLPPAlU/gP5SGlFKUaANoCUMIrSzzwJVP4D+UhpRSlGgDaAlDCK0s88CVT+A/lIaUUpRoA2gJQwitLPPAlU/gP5SGlFKUaANoCUMIrSzzwJVP4D+UhpRSlGgDaAlDCK0s88CVT+A/lIaUUpRlLg==

$$$$
cmpd 6 (ethyl)
     RDKit          3D

 42 44  0  0  1  0  0  0  0  0999 V2000
  -10.9941   -6.2043   12.2035 C   0  0  0  0  0  0  0  0  0  0  0  0
  -12.6220   -6.8961   10.5577 C   0  0  0  0  0  0  0  0  0  0  0  0
  -12.6881   -4.6572   11.3772 C   0  0  0  0  0  0  0  0  0  0  0  0
  -13.7447   -4.3262   10.5887 C   0  0  0  0  0  0  0  0  0  0  0  0
  -14.2919   -5.3537    9.7005 C   0  0  0  0  0  0  0  0  0  0  0  0
  -15.3327   -5.3893    8.7545 C   0  0  0  0  0  0  0  0  0  0  0  0
  -15.3619   -6.6288    8.2267 C   0  0  0  0  0  0  0  0  0  0  0  0
  -13.7074   -6.6286    9.7026 C   0  0  0  0  0  0  0  0  0  0  0  0
  -11.2903   -6.1485   13.6793 C   0  0  0  0  0  0  0  0  0  0  0  0
  -12.1624   -5.9204   11.3608 N   0  0  0  0  0  0  0  0  0  0  0  0
  -14.3812   -7.3959    8.7850 N   0  0  0  0  0  0  0  0  0  0  0  0
  -12.0977   -8.0137   10.5576 O   0  0  0  0  0  0  0  0  0  0  0  0
  -14.2404   -2.9403   10.5922 C   0  0  0  0  0  0  0  0  0  0  0  0
  -14.4293   -2.2308   11.7756 C   0  0  0  0  0  0  0  0  0  0  0  0
  -14.8581   -0.9215   11.7395 C   0  0  0  0  0  0  0  0  0  0  0  0
  -15.0831   -0.2879   10.5298 C   0  0  0  0  0  0  0  0  0  0  0  0
  -14.8693   -0.9826    9.3381 C   0  0  0  0  0  0  0  0  0  0  0  0
  -14.4469   -2.3108    9.3674 C   0  0  0  0  0  0  0  0  0  0  0  0
  -15.1244   -0.2936    8.0538 C   0  0  0  0  0  0  0  0  0  0  0  0
  -16.1765    0.2899    7.9199 O   0  0  0  0  0  0  0  0  0  0  0  0
  -14.2348   -0.2805    7.0355 N   0  0  0  0  0  0  0  0  0  0  0  0
  -14.5873    0.4334    5.8059 C   0  0  0  0  0  0  0  0  0  0  0  0
  -12.9307   -0.9429    7.1080 C   0  0  0  0  0  0  0  0  0  0  0  0
  -10.5964   -7.1873   11.9512 H   0  0  0  0  0  0  0  0  0  0  0  0
  -10.1977   -5.4984   11.9674 H   0  0  0  0  0  0  0  0  0  0  0  0
  -12.2494   -3.9178   12.0308 H   0  0  0  0  0  0  0  0  0  0  0  0
  -15.9306   -4.5078    8.5761 H   0  0  0  0  0  0  0  0  0  0  0  0
  -16.0962   -6.8785    7.4752 H   0  0  0  0  0  0  0  0  0  0  0  0
  -11.9100   -6.8749   14.1840 H   0  0  0  0  0  0  0  0  0  0  0  0
  -14.2636   -8.3558    8.4937 H   0  0  0  0  0  0  0  0  0  0  0  0
  -14.2397   -2.7064   12.7265 H   0  0  0  0  0  0  0  0  0  0  0  0
  -15.0212   -0.3812   12.6603 H   0  0  0  0  0  0  0  0  0  0  0  0
  -15.4219    0.7374   10.5121 H   0  0  0  0  0  0  0  0  0  0  0  0
  -14.2799   -2.8514    8.4474 H   0  0  0  0  0  0  0  0  0  0  0  0
  -13.7703    0.3491    5.0893 H   0  0  0  0  0  0  0  0  0  0  0  0
  -15.4908   -0.0017    5.3789 H   0  0  0  0  0  0  0  0  0  0  0  0
  -14.7634    1.4847    6.0334 H   0  0  0  0  0  0  0  0  0  0  0  0
  -12.3945   -0.7942    6.1707 H   0  0  0  0  0  0  0  0  0  0  0  0
  -12.3521   -0.5184    7.9283 H   0  0  0  0  0  0  0  0  0  0  0  0
  -13.0736   -2.0099    7.2789 H   0  0  0  0  0  0  0  0  0  0  0  0
  -11.6547   -5.1507   13.9235 H   0  0  0  0  0  0  0  0  0  0  0  0
  -10.3480   -6.0596   14.2200 H   0  0  0  0  0  0  0  0  0  0  0  0
  1  9  1  0
  1 10  1  0
  1 24  1  0
  1 25  1  0
  2  8  1  0
  2 10  1  0
  2 12  2  0
  3  4  2  0
  3 10  1  0
  3 26  1  0
  4  5  1  0
  4 13  1  0
  5  6  1  0
  5  8  2  0
  6  7  2  0
  6 27  1  0
  7 11  1  0
  7 28  1  0
  8 11  1  0
  9 29  1  0
  9 41  1  0
  9 42  1  0
 11 30  1  0
 13 14  2  0
 13 18  1  0
 14 15  1  0
 14 31  1  0
 15 16  2  0
 15 32  1  0
 16 17  1  0
 16 33  1  0
 17 18  2  0
 17 19  1  0
 18 34  1  0
 19 20  2  0
 19 21  1  0
 21 22  1  0
 21 23  1  0
 22 35  1  0
 22 36  1  0
 22 37  1  0
 23 38  1  0
 23 39  1  0
 23 40  1  0
M  END
>  <i_m_Source_File_Index>  (5) 
5

>  <b_m_subgroup_collapsed>  (5) 
0

>  <r_exp_dg>  (5) 
-8.59

>  <s_m_Source_File>  (5) 
brd41_ASH106_ligands.sdf

>  <s_m_Source_Path>  (5) 
path\input_structures\original_structures\waterset

>  <s_m_entry_id>  (5) 
33

>  <s_m_entry_name>  (5) 
brd41_ASH106_ligands.5

>  <s_m_subgroup_title>  (5) 
Waterset->BRD4->brd41_ASH106_ligands

>  <s_m_subgroupid>  (5) 
Waterset->BRD41->brd41_ASH106_ligands

>  <experimental dG reference units>  (5) 
kcal/mol

>  <experimental dG reference field>  (5) 
r_exp_dg

>  <kJ/mol experimental dG>  (5) 
-35.94056

>  <kcal/mol experimental dG>  (5) 
-8.59

>  <AmberAM1BCCCache>  (5) 
gASVeQMAAAAAAABdlCiMFm51bXB5Ll9jb3JlLm11bHRpYXJyYXmUjAZzY2FsYXKUk5SMBW51bXB5lIwFZHR5cGWUk5SMAmY4lImIh5RSlChLA4wBPJROTk5K/////0r/////SwB0lGJDCALH1ehUxe0/lIaUUpRoA2gJQwi/0ZAyihchQJSGlFKUaANoCUMIQfHemwWHs7+UhpRSlGgDaAlDCEedkf4Gc+m/lIaUUpRoA2gJQwg8ro/FosfVv5SGlFKUaANoCUMIhvMTkiImA8CUhpRSlGgDaAlDCItSSB8fwvW/lIaUUpRoA2gJQwgNLroZTdsCwJSGlFKUaANoCUMISSDJMHe49b+UhpRSlGgDaAlDCKFWv325FBDAlIaUUpRoA2gJQwhYpWBNvp/6v5SGlFKUaANoCUMIfGARcd8AH8CUhpRSlGgDaAlDCPvmv99GhNO/lIaUUpRoA2gJQwhytrGk1tDzv5SGlFKUaANoCUMIIh8xtMvZ+b+UhpRSlGgDaAlDCP2sqfVlMfS/lIaUUpRoA2gJQwj+1krkzaT4v5SGlFKUaANoCUMIjgv6y8xr8L+UhpRSlGgDaAlDCNdHlt+cth9AlIaUUpRoA2gJQwjsC8xu/D8cwJSGlFKUaANoCUMIkeQSixusFsCUhpRSlGgDaAlDCJVPx60jc+4/lIaUUpRoA2gJQwiVT8etI3PuP5SGlFKUaANoCUMILHcUPirU6j+UhpRSlGgDaAlDCCx3FD4q1Oo/lIaUUpRoA2gJQwjegL3QqAf9P5SGlFKUaANoCUMICludFOaJ/j+UhpRSlGgDaAlDCD6YfIA1HgBAlIaUUpRoA2gJQwg/FhN2S3bhP5SGlFKUaANoCUMIu9u5xELDDUCUhpRSlGgDaAlDCGyrYeQjVfs/lIaUUpRoA2gJQwj71QX4nqL5P5SGlFKUaANoCUMIzMd58XUz+j+UhpRSlGgDaAlDCMiTzS6KRvw/lIaUUpRoA2gJQwhUzb9CXTTgP5SGlFKUaANoCUMIVM2/Ql004D+UhpRSlGgDaAlDCFTNv0JdNOA/lIaUUpRoA2gJQwhUzb9CXTTgP5SGlFKUaANoCUMIVM2/Ql004D+UhpRSlGgDaAlDCFTNv0JdNOA/lIaUUpRoA2gJQwg/FhN2S3bhP5SGlFKUaANoCUMIPxYTdkt24T+UhpRSlGUu

$$$$
cmpd 8 (n-Butyl)
     RDKit          3D

 48 50  0  0  1  0  0  0  0  0999 V2000
  -10.9941   -6.2043   12.2035 C   0  0  0  0  0  0  0  0  0  0  0  0
  -12.6220   -6.8961   10.5577 C   0  0  0  0  0  0  0  0  0  0  0  0
  -12.6881   -4.6572   11.3772 C   0  0  0  0  0  0  0  0  0  0  0  0
  -13.7447   -4.3262   10.5887 C   0  0  0  0  0  0  0  0  0  0  0  0
  -14.2919   -5.3537    9.7005 C   0  0  0  0  0  0  0  0  0  0  0  0
  -15.3327   -5.3893    8.7545 C   0  0  0  0  0  0  0  0  0  0  0  0
  -15.3619   -6.6288    8.2267 C   0  0  0  0  0  0  0  0  0  0  0  0
  -13.7074   -6.6286    9.7026 C   0  0  0  0  0  0  0  0  0  0  0  0
  -11.2903   -6.1485   13.6793 C   0  0  0  0  0  0  0  0  0  0  0  0
  -10.9837   -5.0159   15.8471 C   0  0  0  0  0  0  0  0  0  0  0  0
  -10.7531   -5.1546   14.3588 C   0  0  0  0  0  0  0  0  0  0  0  0
  -12.1624   -5.9204   11.3608 N   0  0  0  0  0  0  0  0  0  0  0  0
  -14.3812   -7.3959    8.7850 N   0  0  0  0  0  0  0  0  0  0  0  0
  -12.0977   -8.0137   10.5576 O   0  0  0  0  0  0  0  0  0  0  0  0
  -14.2404   -2.9403   10.5922 C   0  0  0  0  0  0  0  0  0  0  0  0
  -14.4293   -2.2308   11.7756 C   0  0  0  0  0  0  0  0  0  0  0  0
  -14.8581   -0.9215   11.7395 C   0  0  0  0  0  0  0  0  0  0  0  0
  -15.0831   -0.2879   10.5298 C   0  0  0  0  0  0  0  0  0  0  0  0
  -14.8693   -0.9826    9.3381 C   0  0  0  0  0  0  0  0  0  0  0  0
  -14.4469   -2.3108    9.3674 C   0  0  0  0  0  0  0  0  0  0  0  0
  -15.1244   -0.2936    8.0538 C   0  0  0  0  0  0  0  0  0  0  0  0
  -16.1765    0.2899    7.9199 O   0  0  0  0  0  0  0  0  0  0  0  0
  -14.2348   -0.2805    7.0355 N   0  0  0  0  0  0  0  0  0  0  0  0
  -14.5873    0.4334    5.8059 C   0  0  0  0  0  0  0  0  0  0  0  0
  -12.9307   -0.9429    7.1080 C   0  0  0  0  0  0  0  0  0  0  0  0
  -10.5964   -7.1873   11.9512 H   0  0  0  0  0  0  0  0  0  0  0  0
  -10.1977   -5.4984   11.9674 H   0  0  0  0  0  0  0  0  0  0  0  0
  -12.2494   -3.9178   12.0308 H   0  0  0  0  0  0  0  0  0  0  0  0
  -15.9306   -4.5078    8.5761 H   0  0  0  0  0  0  0  0  0  0  0  0
  -16.0962   -6.8785    7.4752 H   0  0  0  0  0  0  0  0  0  0  0  0
  -11.0020   -7.0940   14.1388 H   0  0  0  0  0  0  0  0  0  0  0  0
  -12.3700   -6.1424   13.8283 H   0  0  0  0  0  0  0  0  0  0  0  0
  -10.4572   -4.1359   16.2164 H   0  0  0  0  0  0  0  0  0  0  0  0
  -12.0508   -4.9084   16.0415 H   0  0  0  0  0  0  0  0  0  0  0  0
  -10.6095   -5.9034   16.3575 H   0  0  0  0  0  0  0  0  0  0  0  0
  -11.0137   -4.2143   13.8729 H   0  0  0  0  0  0  0  0  0  0  0  0
   -9.6806   -5.1345   14.1651 H   0  0  0  0  0  0  0  0  0  0  0  0
  -14.2636   -8.3558    8.4937 H   0  0  0  0  0  0  0  0  0  0  0  0
  -14.2397   -2.7064   12.7265 H   0  0  0  0  0  0  0  0  0  0  0  0
  -15.0212   -0.3812   12.6603 H   0  0  0  0  0  0  0  0  0  0  0  0
  -15.4219    0.7374   10.5121 H   0  0  0  0  0  0  0  0  0  0  0  0
  -14.2799   -2.8514    8.4474 H   0  0  0  0  0  0  0  0  0  0  0  0
  -13.7703    0.3491    5.0893 H   0  0  0  0  0  0  0  0  0  0  0  0
  -15.4908   -0.0017    5.3789 H   0  0  0  0  0  0  0  0  0  0  0  0
  -14.7634    1.4847    6.0334 H   0  0  0  0  0  0  0  0  0  0  0  0
  -12.3945   -0.7942    6.1707 H   0  0  0  0  0  0  0  0  0  0  0  0
  -12.3521   -0.5184    7.9283 H   0  0  0  0  0  0  0  0  0  0  0  0
  -13.0736   -2.0099    7.2789 H   0  0  0  0  0  0  0  0  0  0  0  0
  1  9  1  0
  1 12  1  0
  1 26  1  0
  1 27  1  0
  2  8  1  0
  2 12  1  0
  2 14  2  0
  3  4  2  0
  3 12  1  0
  3 28  1  0
  4  5  1  0
  4 15  1  0
  5  6  1  0
  5  8  2  0
  6  7  2  0
  6 29  1  0
  7 13  1  0
  7 30  1  0
  8 13  1  0
  9 11  1  0
  9 31  1  0
  9 32  1  0
 10 11  1  0
 10 33  1  0
 10 34  1  0
 10 35  1  0
 11 36  1  0
 11 37  1  0
 13 38  1  0
 15 16  2  0
 15 20  1  0
 16 17  1  0
 16 39  1  0
 17 18  2  0
 17 40  1  0
 18 19  1  0
 18 41  1  0
 19 20  2  0
 19 21  1  0
 20 42  1  0
 21 22  2  0
 21 23  1  0
 23 24  1  0
 23 25  1  0
 24 43  1  0
 24 44  1  0
 24 45  1  0
 25 46  1  0
 25 47  1  0
 25 48  1  0
M  END
>  <i_m_Source_File_Index>  (6) 
6

>  <b_m_subgroup_collapsed>  (6) 
0

>  <r_exp_dg>  (6) 
-7.66

>  <s_m_Source_File>  (6) 
brd41_ASH106_ligands.sdf

>  <s_m_Source_Path>  (6) 
path\input_structures\original_structures\waterset

>  <s_m_entry_id>  (6) 
34

>  <s_m_entry_name>  (6) 
brd41_ASH106_ligands.6

>  <s_m_subgroup_title>  (6) 
Waterset->BRD4->brd41_ASH106_ligands

>  <s_m_subgroupid>  (6) 
Waterset->BRD41->brd41_ASH106_ligands

>  <experimental dG reference units>  (6) 
kcal/mol

>  <experimental dG reference field>  (6) 
r_exp_dg

>  <kJ/mol experimental dG>  (6) 
-32.049440000000004

>  <kcal/mol experimental dG>  (6) 
-7.660000000000001

>  <AmberAM1BCCCache>  (6) 
gASV6wMAAAAAAABdlCiMFm51bXB5Ll9jb3JlLm11bHRpYXJyYXmUjAZzY2FsYXKUk5SMBW51bXB5lIwFZHR5cGWUk5SMAmY4lImIh5RSlChLA4wBPJROTk5K/////0r/////SwB0lGJDCGG+Ns0xxu0/lIaUUpRoA2gJQwg14dYAmBchQJSGlFKUaANoCUMIdxC3vFsCtb+UhpRSlGgDaAlDCOmlMBoqcum/lIaUUpRoA2gJQwh/v8386MXVv5SGlFKUaANoCUMIr7X7WOslA8CUhpRSlGgDaAlDCNzWF62wwfW/lIaUUpRoA2gJQwjY7d+0OfMCwJSGlFKUaANoCUMIX8AbdMKR8r+UhpRSlGgDaAlDCHL+ZD23IvK/lIaUUpRoA2gJQwjgPdiUUpjtv5SGlFKUaANoCUMI5DgU94sIEMCUhpRSlGgDaAlDCKkpMNtPn/q/lIaUUpRoA2gJQwiQQYXUwwAfwJSGlFKUaANoCUMIPfj9Fo2C07+UhpRSlGgDaAlDCMM6gTJo0PO/lIaUUpRoA2gJQwhzowBCXdn5v5SGlFKUaANoCUMITjF5g/cw9L+UhpRSlGgDaAlDCE9bGnJfpPi/lIaUUpRoA2gJQwjfj8lZXmvwv5SGlFKUaANoCUMIw2YifLi2H0CUhpRSlGgDaAlDCADtP9LgPxzAlIaUUpRoA2gJQwilxYbu/6sWwJSGlFKUaANoCUMI9EYokgB07j+UhpRSlGgDaAlDCPRGKJIAdO4/lIaUUpRoA2gJQwi5YqtHuk3rP5SGlFKUaANoCUMIuWKrR7pN6z+UhpRSlGgDaAlDCNP3aeteOP0/lIaUUpRoA2gJQwi61s2GVIr+P5SGlFKUaANoCUMIFtaUuWweAECUhpRSlGgDaAlDCII34Kkh0eI/lIaUUpRoA2gJQwiCN+CpIdHiP5SGlFKUaANoCUMIdSrXmLYi2z+UhpRSlGgDaAlDCHUq15i2Its/lIaUUpRoA2gJQwh1KteYtiLbP5SGlFKUaANoCUMI+3SUG35d4D+UhpRSlGgDaAlDCPt0lBt+XeA/lIaUUpRoA2gJQwjwG5QpVqsNQJSGlFKUaANoCUMIGyeSVpJV+z+UhpRSlGgDaAlDCKtRNmoNo/k/lIaUUpRoA2gJQwh8Q6pj5DP6P5SGlFKUaANoCUMIdw/+oPhG/D+UhpRSlGgDaAlDCLPEICc6NeA/lIaUUpRoA2gJQwizxCAnOjXgP5SGlFKUaANoCUMIs8QgJzo14D+UhpRSlGgDaAlDCLPEICc6NeA/lIaUUpRoA2gJQwizxCAnOjXgP5SGlFKUaANoCUMIs8QgJzo14D+UhpRSlGUu

$$$$
cmpd 7 (n-propyl)
     RDKit          3D

 45 47  0  0  1  0  0  0  0  0999 V2000
  -10.9941   -6.2043   12.2035 C   0  0  0  0  0  0  0  0  0  0  0  0
  -12.6220   -6.8961   10.5577 C   0  0  0  0  0  0  0  0  0  0  0  0
  -12.6881   -4.6572   11.3772 C   0  0  0  0  0  0  0  0  0  0  0  0
  -13.7447   -4.3262   10.5887 C   0  0  0  0  0  0  0  0  0  0  0  0
  -14.2919   -5.3537    9.7005 C   0  0  0  0  0  0  0  0  0  0  0  0
  -15.3327   -5.3893    8.7545 C   0  0  0  0  0  0  0  0  0  0  0  0
  -15.3619   -6.6288    8.2267 C   0  0  0  0  0  0  0  0  0  0  0  0
  -13.7074   -6.6286    9.7026 C   0  0  0  0  0  0  0  0  0  0  0  0
  -11.2903   -6.1485   13.6793 C   0  0  0  0  0  0  0  0  0  0  0  0
  -10.7531   -5.1546   14.3588 C   0  0  0  0  0  0  0  0  0  0  0  0
  -12.1624   -5.9204   11.3608 N   0  0  0  0  0  0  0  0  0  0  0  0
  -14.3812   -7.3959    8.7850 N   0  0  0  0  0  0  0  0  0  0  0  0
  -12.0977   -8.0137   10.5576 O   0  0  0  0  0  0  0  0  0  0  0  0
  -14.2404   -2.9403   10.5922 C   0  0  0  0  0  0  0  0  0  0  0  0
  -14.4293   -2.2308   11.7756 C   0  0  0  0  0  0  0  0  0  0  0  0
  -14.8581   -0.9215   11.7395 C   0  0  0  0  0  0  0  0  0  0  0  0
  -15.0831   -0.2879   10.5298 C   0  0  0  0  0  0  0  0  0  0  0  0
  -14.8693   -0.9826    9.3381 C   0  0  0  0  0  0  0  0  0  0  0  0
  -14.4469   -2.3108    9.3674 C   0  0  0  0  0  0  0  0  0  0  0  0
  -15.1244   -0.2936    8.0538 C   0  0  0  0  0  0  0  0  0  0  0  0
  -16.1765    0.2899    7.9199 O   0  0  0  0  0  0  0  0  0  0  0  0
  -14.2348   -0.2805    7.0355 N   0  0  0  0  0  0  0  0  0  0  0  0
  -14.5873    0.4334    5.8059 C   0  0  0  0  0  0  0  0  0  0  0  0
  -12.9307   -0.9429    7.1080 C   0  0  0  0  0  0  0  0  0  0  0  0
  -10.5964   -7.1873   11.9512 H   0  0  0  0  0  0  0  0  0  0  0  0
  -10.1977   -5.4984   11.9674 H   0  0  0  0  0  0  0  0  0  0  0  0
  -12.2494   -3.9178   12.0308 H   0  0  0  0  0  0  0  0  0  0  0  0
  -15.9306   -4.5078    8.5761 H   0  0  0  0  0  0  0  0  0  0  0  0
  -16.0962   -6.8785    7.4752 H   0  0  0  0  0  0  0  0  0  0  0  0
  -11.0020   -7.0940   14.1388 H   0  0  0  0  0  0  0  0  0  0  0  0
  -12.3700   -6.1424   13.8283 H   0  0  0  0  0  0  0  0  0  0  0  0
  -11.0440   -5.2310   15.4065 H   0  0  0  0  0  0  0  0  0  0  0  0
   -9.6672   -5.2044   14.2792 H   0  0  0  0  0  0  0  0  0  0  0  0
  -11.1034   -4.2054   13.9532 H   0  0  0  0  0  0  0  0  0  0  0  0
  -14.2636   -8.3558    8.4937 H   0  0  0  0  0  0  0  0  0  0  0  0
  -14.2397   -2.7064   12.7265 H   0  0  0  0  0  0  0  0  0  0  0  0
  -15.0212   -0.3812   12.6603 H   0  0  0  0  0  0  0  0  0  0  0  0
  -15.4219    0.7374   10.5121 H   0  0  0  0  0  0  0  0  0  0  0  0
  -14.2799   -2.8514    8.4474 H   0  0  0  0  0  0  0  0  0  0  0  0
  -13.7703    0.3491    5.0893 H   0  0  0  0  0  0  0  0  0  0  0  0
  -15.4908   -0.0017    5.3789 H   0  0  0  0  0  0  0  0  0  0  0  0
  -14.7634    1.4847    6.0334 H   0  0  0  0  0  0  0  0  0  0  0  0
  -12.3945   -0.7942    6.1707 H   0  0  0  0  0  0  0  0  0  0  0  0
  -12.3521   -0.5184    7.9283 H   0  0  0  0  0  0  0  0  0  0  0  0
  -13.0736   -2.0099    7.2789 H   0  0  0  0  0  0  0  0  0  0  0  0
  1  9  1  0
  1 11  1  0
  1 25  1  0
  1 26  1  0
  2  8  1  0
  2 11  1  0
  2 13  2  0
  3  4  2  0
  3 11  1  0
  3 27  1  0
  4  5  1  0
  4 14  1  0
  5  6  1  0
  5  8  2  0
  6  7  2  0
  6 28  1  0
  7 12  1  0
  7 29  1  0
  8 12  1  0
  9 10  1  0
  9 30  1  0
  9 31  1  0
 10 32  1  0
 10 33  1  0
 10 34  1  0
 12 35  1  0
 14 15  2  0
 14 19  1  0
 15 16  1  0
 15 36  1  0
 16 17  2  0
 16 37  1  0
 17 18  1  0
 17 38  1  0
 18 19  2  0
 18 20  1  0
 19 39  1  0
 20 21  2  0
 20 22  1  0
 22 23  1  0
 22 24  1  0
 23 40  1  0
 23 41  1  0
 23 42  1  0
 24 43  1  0
 24 44  1  0
 24 45  1  0
M  END
>  <i_m_Source_File_Index>  (7) 
7

>  <b_m_subgroup_collapsed>  (7) 
0

>  <r_exp_dg>  (7) 
-7.02

>  <s_m_Source_File>  (7) 
brd41_ASH106_ligands.sdf

>  <s_m_Source_Path>  (7) 
path\input_structures\original_structures\waterset

>  <s_m_entry_id>  (7) 
35

>  <s_m_entry_name>  (7) 
brd41_ASH106_ligands.7

>  <s_m_subgroup_title>  (7) 
Waterset->BRD4->brd41_ASH106_ligands

>  <s_m_subgroupid>  (7) 
Waterset->BRD41->brd41_ASH106_ligands

>  <experimental dG reference units>  (7) 
kcal/mol

>  <experimental dG reference field>  (7) 
r_exp_dg

>  <kJ/mol experimental dG>  (7) 
-29.371679999999998

>  <kcal/mol experimental dG>  (7) 
-7.02

>  <AmberAM1BCCCache>  (7) 
gASVsgMAAAAAAABdlCiMFm51bXB5Ll9jb3JlLm11bHRpYXJyYXmUjAZzY2FsYXKUk5SMBW51bXB5lIwFZHR5cGWUk5SMAmY4lImIh5RSlChLA4wBPJROTk5K/////0r/////SwB0lGJDCOOCcCHLxe0/lIaUUpRoA2gJQwh+fRqWkRchQJSGlFKUaANoCUMIlMbIXs6Htr+UhpRSlGgDaAlDCGbh9sWQcum/lIaUUpRoA2gJQwh8NlpUtsbVv5SGlFKUaANoCUMIj0TtAwUmA8CUhpRSlGgDaAlDCJr0+gLkwfW/lIaUUpRoA2gJQwi5fNFfU/MCwJSGlFKUaANoCUMIY9l6cj3C8r+UhpRSlGgDaAlDCKYlUEJbwvG/lIaUUpRoA2gJQwhTAI3MmAgQwJSGlFKUaANoCUMIaUcTMYOf+r+UhpRSlGgDaAlDCP8I/qnQAB/AlIaUUpRoA2gJQwg6b4puWoPTv5SGlFKUaANoCUMIgVhkiJvQ87+UhpRSlGgDaAlDCDPB45eQ2fm/lIaUUpRoA2gJQwgMT1zZKjH0v5SGlFKUaANoCUMID3n9x5Kk+L+UhpRSlGgDaAlDCJ6trK+Ra/C/lIaUUpRoA2gJQwhUn6mmq7YfQJSGlFKUaANoCUMIb7S4p+0/HMCUhpRSlGgDaAlDCBWN/8MMrBbAlIaUUpRoA2gJQwh3C2LmmXPuP5SGlFKUaANoCUMIdwti5plz7j+UhpRSlGgDaAlDCFMuKx/oBOs/lIaUUpRoA2gJQwhTLisf6ATrP5SGlFKUaANoCUMIE9qGlSs4/T+UhpRSlGgDaAlDCPm46jAhiv4/lIaUUpRoA2gJQwg2R6MOUx4AQJSGlFKUaANoCUMIp/lX0t7o4j+UhpRSlGgDaAlDCKf5V9Le6OI/lIaUUpRoA2gJQwjQzGhe3STdP5SGlFKUaANoCUMI0MxoXt0k3T+UhpRSlGgDaAlDCNDMaF7dJN0/lIaUUpRoA2gJQwiziuBSYMMNQJSGlFKUaANoCUMIWwmvAF9V+z+UhpRSlGgDaAlDCOszUxTaovk/lIaUUpRoA2gJQwi7JccNsTP6P5SGlFKUaANoCUMIt/EaS8VG/D+UhpRSlGgDaAlDCDWJWnvTNOA/lIaUUpRoA2gJQwg1iVp70zTgP5SGlFKUaANoCUMINYlae9M04D+UhpRSlGgDaAlDCDWJWnvTNOA/lIaUUpRoA2gJQwg1iVp70zTgP5SGlFKUaANoCUMINYlae9M04D+UhpRSlGUu

$$$$
cmpd 4 (Crotyl)
     RDKit          3D

 46 48  0  0  1  0  0  0  0  0999 V2000
  -10.9941   -6.2043   12.2035 C   0  0  0  0  0  0  0  0  0  0  0  0
  -12.6220   -6.8961   10.5577 C   0  0  0  0  0  0  0  0  0  0  0  0
  -12.6881   -4.6572   11.3772 C   0  0  0  0  0  0  0  0  0  0  0  0
  -13.7447   -4.3262   10.5887 C   0  0  0  0  0  0  0  0  0  0  0  0
  -14.2919   -5.3537    9.7005 C   0  0  0  0  0  0  0  0  0  0  0  0
  -15.3327   -5.3893    8.7545 C   0  0  0  0  0  0  0  0  0  0  0  0
  -15.3619   -6.6288    8.2267 C   0  0  0  0  0  0  0  0  0  0  0  0
  -13.7074   -6.6286    9.7026 C   0  0  0  0  0  0  0  0  0  0  0  0
  -11.2903   -6.1485   13.6793 C   0  0  0  0  0  0  0  0  0  0  0  0
  -10.9837   -5.0159   15.8471 C   0  0  0  0  0  0  0  0  0  0  0  0
  -10.7531   -5.1546   14.3588 C   0  0  0  0  0  0  0  0  0  0  0  0
  -12.1624   -5.9204   11.3608 N   0  0  0  0  0  0  0  0  0  0  0  0
  -14.3812   -7.3959    8.7850 N   0  0  0  0  0  0  0  0  0  0  0  0
  -12.0977   -8.0137   10.5576 O   0  0  0  0  0  0  0  0  0  0  0  0
  -14.2404   -2.9403   10.5922 C   0  0  0  0  0  0  0  0  0  0  0  0
  -14.4293   -2.2308   11.7756 C   0  0  0  0  0  0  0  0  0  0  0  0
  -14.8581   -0.9215   11.7395 C   0  0  0  0  0  0  0  0  0  0  0  0
  -15.0831   -0.2879   10.5298 C   0  0  0  0  0  0  0  0  0  0  0  0
  -14.8693   -0.9826    9.3381 C   0  0  0  0  0  0  0  0  0  0  0  0
  -14.4469   -2.3108    9.3674 C   0  0  0  0  0  0  0  0  0  0  0  0
  -15.1244   -0.2936    8.0538 C   0  0  0  0  0  0  0  0  0  0  0  0
  -16.1765    0.2899    7.9199 O   0  0  0  0  0  0  0  0  0  0  0  0
  -14.2348   -0.2805    7.0355 N   0  0  0  0  0  0  0  0  0  0  0  0
  -14.5873    0.4334    5.8059 C   0  0  0  0  0  0  0  0  0  0  0  0
  -12.9307   -0.9429    7.1080 C   0  0  0  0  0  0  0  0  0  0  0  0
  -10.5964   -7.1873   11.9512 H   0  0  0  0  0  0  0  0  0  0  0  0
  -10.1977   -5.4984   11.9674 H   0  0  0  0  0  0  0  0  0  0  0  0
  -12.2494   -3.9178   12.0308 H   0  0  0  0  0  0  0  0  0  0  0  0
  -15.9306   -4.5078    8.5761 H   0  0  0  0  0  0  0  0  0  0  0  0
  -16.0962   -6.8785    7.4752 H   0  0  0  0  0  0  0  0  0  0  0  0
  -11.9100   -6.8749   14.1840 H   0  0  0  0  0  0  0  0  0  0  0  0
  -10.4572   -4.1359   16.2164 H   0  0  0  0  0  0  0  0  0  0  0  0
  -12.0508   -4.9084   16.0415 H   0  0  0  0  0  0  0  0  0  0  0  0
  -10.6095   -5.9034   16.3575 H   0  0  0  0  0  0  0  0  0  0  0  0
  -10.1384   -4.4247   13.8530 H   0  0  0  0  0  0  0  0  0  0  0  0
  -14.2636   -8.3558    8.4937 H   0  0  0  0  0  0  0  0  0  0  0  0
  -14.2397   -2.7064   12.7265 H   0  0  0  0  0  0  0  0  0  0  0  0
  -15.0212   -0.3812   12.6603 H   0  0  0  0  0  0  0  0  0  0  0  0
  -15.4219    0.7374   10.5121 H   0  0  0  0  0  0  0  0  0  0  0  0
  -14.2799   -2.8514    8.4474 H   0  0  0  0  0  0  0  0  0  0  0  0
  -13.7703    0.3491    5.0893 H   0  0  0  0  0  0  0  0  0  0  0  0
  -15.4908   -0.0017    5.3789 H   0  0  0  0  0  0  0  0  0  0  0  0
  -14.7634    1.4847    6.0334 H   0  0  0  0  0  0  0  0  0  0  0  0
  -12.3945   -0.7942    6.1707 H   0  0  0  0  0  0  0  0  0  0  0  0
  -12.3521   -0.5184    7.9283 H   0  0  0  0  0  0  0  0  0  0  0  0
  -13.0736   -2.0099    7.2789 H   0  0  0  0  0  0  0  0  0  0  0  0
  1  9  1  0
  1 12  1  0
  1 26  1  0
  1 27  1  0
  2  8  1  0
  2 12  1  0
  2 14  2  0
  3  4  2  0
  3 12  1  0
  3 28  1  0
  4  5  1  0
  4 15  1  0
  5  6  1  0
  5  8  2  0
  6  7  2  0
  6 29  1  0
  7 13  1  0
  7 30  1  0
  8 13  1  0
  9 11  2  0
  9 31  1  0
 10 11  1  0
 10 32  1  0
 10 33  1  0
 10 34  1  0
 11 35  1  0
 13 36  1  0
 15 16  2  0
 15 20  1  0
 16 17  1  0
 16 37  1  0
 17 18  2  0
 17 38  1  0
 18 19  1  0
 18 39  1  0
 19 20  2  0
 19 21  1  0
 20 40  1  0
 21 22  2  0
 21 23  1  0
 23 24  1  0
 23 25  1  0
 24 41  1  0
 24 42  1  0
 24 43  1  0
 25 44  1  0
 25 45  1  0
 25 46  1  0
M  END
>  <i_m_Source_File_Index>  (8) 
8

>  <b_m_subgroup_collapsed>  (8) 
0

>  <r_exp_dg>  (8) 
-8.64

>  <s_m_Source_File>  (8) 
brd41_ASH106_ligands.sdf

>  <s_m_Source_Path>  (8) 
path\input_structures\original_structures\waterset

>  <s_m_entry_id>  (8) 
36

>  <s_m_entry_name>  (8) 
brd41_ASH106_ligands.8

>  <s_m_subgroup_title>  (8) 
Waterset->BRD4->brd41_ASH106_ligands

>  <s_m_subgroupid>  (8) 
Waterset->BRD41->brd41_ASH106_ligands

>  <experimental dG reference units>  (8) 
kcal/mol

>  <experimental dG reference field>  (8) 
r_exp_dg

>  <kJ/mol experimental dG>  (8) 
-36.14976

>  <kcal/mol experimental dG>  (8) 
-8.64

>  <AmberAM1BCCCache>  (8) 
gASVxQMAAAAAAABdlCiMFm51bXB5Ll9jb3JlLm11bHRpYXJyYXmUjAZzY2FsYXKUk5SMBW51bXB5lIwFZHR5cGWUk5SMAmY4lImIh5RSlChLA4wBPJROTk5K/////0r/////SwB0lGJDCN9xJ4noJvU/lIaUUpRoA2gJQwjFEFlgtRchQJSGlFKUaANoCUMIHiN/P+l1tr+UhpRSlGgDaAlDCPesDSJUcOm/lIaUUpRoA2gJQwjglFfymAXYv5SGlFKUaANoCUMIRQO9tcKsAsCUhpRSlGgDaAlDCB1figh+kPW/lIaUUpRoA2gJQwg/LRUL6AoDwJSGlFKUaANoCUMI8JL0/SUSA8CUhpRSlGgDaAlDCD2oicqboOm/lIaUUpRoA2gJQwjZCKpk3Bb9v5SGlFKUaANoCUMIl9guImMUEMCUhpRSlGgDaAlDCLyjFjD0/vq/lIaUUpRoA2gJQwgU4L7prBgfwJSGlFKUaANoCUMIXAa4JuF+07+UhpRSlGgDaAlDCLyTyyICgvW/lIaUUpRoA2gJQwi1K3OdKqj5v5SGlFKUaANoCUMIG7DjL1Rg9L+UhpRSlGgDaAlDCBzahB680/i/lIaUUpRoA2gJQwjre7ji3G/tv5SGlFKUaANoCUMIhcNkDxfPH0CUhpRSlGgDaAlDCFWKmNHbYxzAlIaUUpRoA2gJQwi2Z2NFs58WwJSGlFKUaANoCUMI5j9LitZ17j+UhpRSlGgDaAlDCOY/S4rWde4/lIaUUpRoA2gJQwgFKuSogErtP5SGlFKUaANoCUMIBSrkqIBK7T+UhpRSlGgDaAlDCJBv94+Raf0/lIaUUpRoA2gJQwj0kdsLBjcAQJSGlFKUaANoCUMI9JHbCwY3AECUhpRSlGgDaAlDCK7EP7eHBPo/lIaUUpRoA2gJQwi5qjPBLvjgP5SGlFKUaANoCUMIuaozwS744D+UhpRSlGgDaAlDCLmqM8Eu+OA/lIaUUpRoA2gJQwjKGYjefZ/2P5SGlFKUaANoCUMIK9qcp8urDUCUhpRSlGgDaAlDCCPOR2b4o/k/lIaUUpRoA2gJQwgjzkdm+KP5P5SGlFKUaANoCUMI9L+7X880+j+UhpRSlGgDaAlDCGFha4lo+v0/lIaUUpRoA2gJQwhJcHk/MEfgP5SGlFKUaANoCUMISXB5PzBH4D+UhpRSlGgDaAlDCElweT8wR+A/lIaUUpRoA2gJQwhJcHk/MEfgP5SGlFKUaANoCUMISXB5PzBH4D+UhpRSlGgDaAlDCElweT8wR+A/lIaUUpRlLg==

$$$$
