12
     RDKit          3D

 35 37  0  0  1  0  0  0  0  0999 V2000
   26.7934   20.1983    8.3316 C   0  0  0  0  0  0  0  0  0  0  0  0
   26.9388   18.8122    8.2365 C   0  0  0  0  0  0  0  0  0  0  0  0
   27.5595   18.0924    9.2071 C   0  0  0  0  0  0  0  0  0  0  0  0
   28.0424   18.7797   10.2764 C   0  0  0  0  0  0  0  0  0  0  0  0
   27.9127   20.1711   10.3829 C   0  0  0  0  0  0  0  0  0  0  0  0
   27.2811   20.8776    9.4013 N   0  0  0  0  0  0  0  0  0  0  0  0
   28.4424   20.9468   11.5561 C   0  0  0  0  0  0  0  0  0  0  0  0
   28.4293   22.2686   11.6014 N   0  0  0  0  0  0  0  0  0  0  0  0
   28.9666   22.5117   12.7937 N   0  0  0  0  0  0  0  0  0  0  0  0
   26.5691   18.2663    7.3824 H   0  0  0  0  0  0  0  0  0  0  0  0
   28.5385   18.2034   11.0424 H   0  0  0  0  0  0  0  0  0  0  0  0
   29.0574   23.4414   13.1933 H   0  0  0  0  0  0  0  0  0  0  0  0
   25.3993   19.9471    6.6433 F   0  0  0  0  0  0  0  0  0  0  0  0
   26.1506   20.8654    7.3480 C   0  0  0  0  0  0  0  0  0  0  0  0
   25.3261   21.8284    7.8931 F   0  0  0  0  0  0  0  0  0  0  0  0
   27.0673   21.4658    6.5092 F   0  0  0  0  0  0  0  0  0  0  0  0
   29.2880   21.4204   13.4120 C   0  0  0  0  0  0  0  0  0  0  0  0
   28.9240   20.3701   12.5534 C   0  0  0  0  0  0  0  0  0  0  0  0
   29.1462   19.0382   12.9396 C   0  0  0  0  0  0  0  0  0  0  0  0
   29.7324   18.7565   14.1845 C   0  0  0  0  0  0  0  0  0  0  0  0
   30.0963   19.8067   15.0432 N   0  0  0  0  0  0  0  0  0  0  0  0
   29.8741   21.1388   14.6569 C   0  0  0  0  0  0  0  0  0  0  0  0
   28.8602   18.2131   12.2651 H   0  0  0  0  0  0  0  0  0  0  0  0
   29.9069   17.7101   14.4880 H   0  0  0  0  0  0  0  0  0  0  0  0
   30.1601   21.9638   15.3315 H   0  0  0  0  0  0  0  0  0  0  0  0
   27.6779   16.7232    9.0818 N   0  0  0  0  0  0  0  0  0  0  0  0
   27.3030   16.2563    8.2684 H   0  0  0  0  0  0  0  0  0  0  0  0
   28.3400   15.9554   10.1170 C   0  0  0  0  0  0  0  0  0  0  0  0
   29.2388   16.5148   10.4790 H   0  0  0  0  0  0  0  0  0  0  0  0
   27.6339   15.7922   10.9696 H   0  0  0  0  0  0  0  0  0  0  0  0
   28.7742   14.6065    9.5509 C   0  0  0  0  0  0  0  0  0  0  0  0
   29.8821   14.4950    9.6610 H   0  0  0  0  0  0  0  0  0  0  0  0
   28.2594   13.7846   10.1089 H   0  0  0  0  0  0  0  0  0  0  0  0
   28.4282   14.5363    8.1858 O   0  0  0  0  0  0  0  0  0  0  0  0
   27.4769   14.6365    8.1469 H   0  0  0  0  0  0  0  0  0  0  0  0
  1  2  2  0
  1  6  1  0
  1 14  1  0
  2  3  1  0
  2 10  1  0
  3  4  2  0
  3 26  1  0
  4  5  1  0
  4 11  1  0
  5  6  2  0
  5  7  1  0
  7  8  2  0
  7 18  1  0
  8  9  1  0
  9 12  1  0
  9 17  1  0
 13 14  1  0
 14 15  1  0
 14 16  1  0
 17 18  2  0
 17 22  1  0
 18 19  1  0
 19 20  2  0
 19 23  1  0
 20 21  1  0
 20 24  1  0
 21 22  2  0
 22 25  1  0
 26 27  1  0
 26 28  1  0
 28 29  1  0
 28 30  1  0
 28 31  1  0
 31 32  1  0
 31 33  1  0
 31 34  1  0
 34 35  1  0
M  END
>  <i_m_Source_File_Index>  (1) 
1

>  <b_m_subgroup_collapsed>  (1) 
0

>  <r_exp_dg>  (1) 
-9.05

>  <s_m_Source_File>  (1) 
frag_liga_auto_ligands.sdf

>  <s_m_Source_Path>  (1) 
/pmount/projects/site/pred/cadd/steinbt2/projects/2023-OpenFFtest/2024-07-01-OpenFEBenchmarkProject/LigA

>  <s_m_entry_id>  (1) 
4

>  <s_m_entry_name>  (1) 
frag_liga_auto_ligands.1

>  <s_m_subgroup_title>  (1) 
frag_liga_auto_ligands

>  <s_m_subgroupid>  (1) 
frag_liga_auto_ligands

>  <s_user_duplicate_titles>  (1) 
12

>  <experimental dG reference units>  (1) 
kcal/mol

>  <experimental dG reference field>  (1) 
r_exp_dg

>  <kJ/mol experimental dG>  (1) 
-37.8652

>  <kcal/mol experimental dG>  (1) 
-9.05

>  <AmberAM1BCCCache>  (1) 
gASV9AIAAAAAAABdlCiMFm51bXB5Ll9jb3JlLm11bHRpYXJyYXmUjAZzY2FsYXKUk5SMBW51bXB5lIwFZHR5cGWUk5SMAmY4lImIh5RSlChLA4wBPJROTk5K/////0r/////SwB0lGJDCMX2ybJ6eRFAlIaUUpRoA2gJQwisVYC2nqwJwJSGlFKUaANoCUMISYszT3dyAkCUhpRSlGgDaAlDCMRcxjkzZAnAlIaUUpRoA2gJQwiZLDV8L3QVQJSGlFKUaANoCUMIga6rTsURH8CUhpRSlGgDaAlDCHtLBkuBEwlAlIaUUpRoA2gJQwhjWySoOCcXwJSGlFKUaANoCUMIVCOt9Hm+rT+UhpRSlGgDaAlDCKsNYhSRH/8/lIaUUpRoA2gJQwgfF2rDAb/+P5SGlFKUaANoCUMITxbCC+pHD0CUhpRSlGgDaAlDCNEmQwK0rgXAlIaUUpRoA2gJQwid6yZiSyEcQJSGlFKUaANoCUMI0SZDArSuBcCUhpRSlGgDaAlDCNEmQwK0rgXAlIaUUpRoA2gJQwgJs6bd1N0BwJSGlFKUaANoCUMIXZ+A+mBS+7+UhpRSlGgDaAlDCJbUVmx9SP2/lIaUUpRoA2gJQwhgb7kDmr8QQJSGlFKUaANoCUMIyMN92II4HsCUhpRSlGgDaAlDCFw7DUGu0hJAlIaUUpRoA2gJQwjr8yAs51AAQJSGlFKUaANoCUMIaLoghS841T+UhpRSlGgDaAlDCFLNMOMQd9Q/lIaUUpRoA2gJQwj/W35LPGMhwJSGlFKUaANoCUMI9Yz7vxynE0CUhpRSlGgDaAlDCFYin0a2Qfw/lIaUUpRoA2gJQwg4sdKf54LjP5SGlFKUaANoCUMIOLHSn+eC4z+UhpRSlGgDaAlDCLFLGasAhvY/lIaUUpRoA2gJQwhki7LjJAXlP5SGlFKUaANoCUMIZIuy4yQF5T+UhpRSlGgDaAlDCDw4NZA/nhvAlIaUUpRoA2gJQwgSauntiwATQJSGlFKUZS4=

$$$$
9
     RDKit          3D

 23 24  0  0  1  0  0  0  0  0999 V2000
   26.7934   20.1983    8.3316 C   0  0  0  0  0  0  0  0  0  0  0  0
   26.9388   18.8122    8.2365 C   0  0  0  0  0  0  0  0  0  0  0  0
   27.5595   18.0924    9.2071 C   0  0  0  0  0  0  0  0  0  0  0  0
   28.0424   18.7797   10.2764 C   0  0  0  0  0  0  0  0  0  0  0  0
   27.9127   20.1711   10.3829 C   0  0  0  0  0  0  0  0  0  0  0  0
   27.2811   20.8776    9.4013 N   0  0  0  0  0  0  0  0  0  0  0  0
   28.4424   20.9468   11.5561 C   0  0  0  0  0  0  0  0  0  0  0  0
   28.4293   22.2686   11.6014 N   0  0  0  0  0  0  0  0  0  0  0  0
   28.9666   22.5117   12.7937 N   0  0  0  0  0  0  0  0  0  0  0  0
   29.2854   21.3384   13.4033 C   0  0  0  0  0  0  0  0  0  0  0  0
   28.9587   20.3412   12.6235 N   0  0  0  0  0  0  0  0  0  0  0  0
   26.5691   18.2663    7.3824 H   0  0  0  0  0  0  0  0  0  0  0  0
   28.5385   18.2034   11.0424 H   0  0  0  0  0  0  0  0  0  0  0  0
   29.0574   23.4414   13.1933 H   0  0  0  0  0  0  0  0  0  0  0  0
   29.7128   21.3188   14.3954 H   0  0  0  0  0  0  0  0  0  0  0  0
   27.6521   17.0208    9.1090 H   0  0  0  0  0  0  0  0  0  0  0  0
   25.3901   19.9358    6.6347 C   0  0  0  0  0  0  0  0  0  0  0  0
   24.8371   20.4445    5.8056 H   0  0  0  0  0  0  0  0  0  0  0  0
   26.0702   19.1572    6.2067 H   0  0  0  0  0  0  0  0  0  0  0  0
   24.6584   19.4512    7.3287 H   0  0  0  0  0  0  0  0  0  0  0  0
   26.1506   20.8654    7.3480 C   0  0  0  0  0  0  0  0  0  0  0  0
   25.3261   21.8284    7.8931 F   0  0  0  0  0  0  0  0  0  0  0  0
   27.0673   21.4658    6.5092 F   0  0  0  0  0  0  0  0  0  0  0  0
  1  2  2  0
  1  6  1  0
  1 21  1  0
  2  3  1  0
  2 12  1  0
  3  4  2  0
  3 16  1  0
  4  5  1  0
  4 13  1  0
  5  6  2  0
  5  7  1  0
  7  8  2  0
  7 11  1  0
  8  9  1  0
  9 10  1  0
  9 14  1  0
 10 11  2  0
 10 15  1  0
 17 18  1  0
 17 19  1  0
 17 20  1  0
 17 21  1  0
 21 22  1  0
 21 23  1  0
M  END
>  <i_m_Source_File_Index>  (2) 
2

>  <b_m_subgroup_collapsed>  (2) 
0

>  <r_exp_dg>  (2) 
-6.38

>  <s_m_Source_File>  (2) 
frag_liga_auto_ligands.sdf

>  <s_m_Source_Path>  (2) 
/pmount/projects/site/pred/cadd/steinbt2/projects/2023-OpenFFtest/2024-07-01-OpenFEBenchmarkProject/LigA

>  <s_m_entry_id>  (2) 
5

>  <s_m_entry_name>  (2) 
frag_liga_auto_ligands.2

>  <s_m_subgroup_title>  (2) 
frag_liga_auto_ligands

>  <s_m_subgroupid>  (2) 
frag_liga_auto_ligands

>  <s_user_duplicate_titles>  (2) 
9

>  <experimental dG reference units>  (2) 
kcal/mol

>  <experimental dG reference field>  (2) 
r_exp_dg

>  <kJ/mol experimental dG>  (2) 
-26.693920000000002

>  <kcal/mol experimental dG>  (2) 
-6.38

>  <AmberAM1BCCCache>  (2) 
gASVEAIAAAAAAABdlCiMFm51bXB5Ll9jb3JlLm11bHRpYXJyYXmUjAZzY2FsYXKUk5SMBW51bXB5lIwFZHR5cGWUk5SMAmY4lImIh5RSlChLA4wBPJROTk5K/////0r/////SwB0lGJDCBN3KpuZ1A9AlIaUUpRoA2gJQwjXsy5BQ40DwJSGlFKUaANoCUMIhZFI2V4O87+UhpRSlGgDaAlDCEu9NvCzLAPAlIaUUpRoA2gJQwjbSK82dXISQJSGlFKUaANoCUMI28vTSyS3HMCUhpRSlGgDaAlDCCxJHq9ifxVAlIaUUpRoA2gJQwixdvnxqPEXwJSGlFKUaANoCUMICt/ZijJC/r+UhpRSlGgDaAlDCNwmWJsnyBJAlIaUUpRoA2gJQwg2p5SlTy0ewJSGlFKUaANoCUMI4pIWPj+L/j+UhpRSlGgDaAlDCMulJpwgyv0/lIaUUpRoA2gJQwiNVtr05BUPQJSGlFKUaANoCUMIx45n5nFP7D+UhpRSlGgDaAlDCIneVrbEhvs/lIaUUpRoA2gJQwhUkwfgJxz5v5SGlFKUaANoCUMIDPWSlwVG6j+UhpRSlGgDaAlDCAz1kpcFRuo/lIaUUpRoA2gJQwgM9ZKXBUbqP5SGlFKUaANoCUMI9FygqkSlEUCUhpRSlGgDaAlDCOlsciB2YQbAlIaUUpRoA2gJQwjpbHIgdmEGwJSGlFKUZS4=

$$$$
5
     RDKit          3D

 17 18  0  0  1  0  0  0  0  0999 V2000
   26.2856   20.7434    7.5498 H   0  0  0  0  0  0  0  0  0  0  0  0
   26.7934   20.1983    8.3316 C   0  0  0  0  0  0  0  0  0  0  0  0
   26.9388   18.8122    8.2365 C   0  0  0  0  0  0  0  0  0  0  0  0
   27.5595   18.0924    9.2071 C   0  0  0  0  0  0  0  0  0  0  0  0
   28.0424   18.7797   10.2764 C   0  0  0  0  0  0  0  0  0  0  0  0
   27.9127   20.1711   10.3829 C   0  0  0  0  0  0  0  0  0  0  0  0
   27.2811   20.8776    9.4013 N   0  0  0  0  0  0  0  0  0  0  0  0
   28.4424   20.9468   11.5561 C   0  0  0  0  0  0  0  0  0  0  0  0
   28.4293   22.2686   11.6014 N   0  0  0  0  0  0  0  0  0  0  0  0
   28.9666   22.5117   12.7937 N   0  0  0  0  0  0  0  0  0  0  0  0
   29.2854   21.3384   13.4033 C   0  0  0  0  0  0  0  0  0  0  0  0
   28.9587   20.3412   12.6235 N   0  0  0  0  0  0  0  0  0  0  0  0
   26.5691   18.2663    7.3824 H   0  0  0  0  0  0  0  0  0  0  0  0
   28.5385   18.2034   11.0424 H   0  0  0  0  0  0  0  0  0  0  0  0
   29.0574   23.4414   13.1933 H   0  0  0  0  0  0  0  0  0  0  0  0
   29.7128   21.3188   14.3954 H   0  0  0  0  0  0  0  0  0  0  0  0
   27.6521   17.0208    9.1090 H   0  0  0  0  0  0  0  0  0  0  0  0
  1  2  1  0
  2  3  2  0
  2  7  1  0
  3  4  1  0
  3 13  1  0
  4  5  2  0
  4 17  1  0
  5  6  1  0
  5 14  1  0
  6  7  2  0
  6  8  1  0
  8  9  2  0
  8 12  1  0
  9 10  1  0
 10 11  1  0
 10 15  1  0
 11 12  2  0
 11 16  1  0
M  END
>  <i_m_Source_File_Index>  (3) 
3

>  <b_m_subgroup_collapsed>  (3) 
0

>  <r_exp_dg>  (3) 
-4.8

>  <s_m_Source_File>  (3) 
frag_liga_auto_ligands.sdf

>  <s_m_Source_Path>  (3) 
/pmount/projects/site/pred/cadd/steinbt2/projects/2023-OpenFFtest/2024-07-01-OpenFEBenchmarkProject/LigA

>  <s_m_entry_id>  (3) 
6

>  <s_m_entry_name>  (3) 
frag_liga_auto_ligands.3

>  <s_m_subgroup_title>  (3) 
frag_liga_auto_ligands

>  <s_m_subgroupid>  (3) 
frag_liga_auto_ligands

>  <s_user_duplicate_titles>  (3) 
5

>  <experimental dG reference units>  (3) 
kcal/mol

>  <experimental dG reference field>  (3) 
r_exp_dg

>  <kJ/mol experimental dG>  (3) 
-20.0832

>  <kcal/mol experimental dG>  (3) 
-4.8

>  <AmberAM1BCCCache>  (3) 
gASVngEAAAAAAABdlCiMFm51bXB5Ll9jb3JlLm11bHRpYXJyYXmUjAZzY2FsYXKUk5SMBW51bXB5lIwFZHR5cGWUk5SMAmY4lImIh5RSlChLA4wBPJROTk5K/////0r/////SwB0lGJDCKiLbK1N79I/lIaUUpRoA2gJQwhZ/vaQxnESQJSGlFKUaANoCUMIRS797NSoBsCUhpRSlGgDaAlDCOAr8ie2q/K/lIaUUpRoA2gJQwilZGvbnH0EwJSGlFKUaANoCUMIiuor/KE2EkCUhpRSlGgDaAlDCHAYKD4EqB3AlIaUUpRoA2gJQwg44LGvMLAVQJSGlFKUaANoCUMIMNZdQmohGMCUhpRSlGgDaAlDCHxmc3uooP6/lIaUUpRoA2gJQwgAxTEfirASQJSGlFKUaANoCUMIzQ0/eaUUHsCUhpRSlGgDaAlDCBdXvcVOKPs/lIaUUpRoA2gJQwjOJ5VaGwv9P5SGlFKUaANoCUMI1JKN/KnmDkCUhpRSlGgDaAlDCON/NAWGkus/lIaUUpRoA2gJQwgCas0jMGf6P5SGlFKUZS4=

$$$$
6
     RDKit          3D

 21 22  0  0  1  0  0  0  0  0999 V2000
   26.7934   20.1983    8.3316 C   0  0  0  0  0  0  0  0  0  0  0  0
   26.9388   18.8122    8.2365 C   0  0  0  0  0  0  0  0  0  0  0  0
   27.5595   18.0924    9.2071 C   0  0  0  0  0  0  0  0  0  0  0  0
   28.0424   18.7797   10.2764 C   0  0  0  0  0  0  0  0  0  0  0  0
   27.9127   20.1711   10.3829 C   0  0  0  0  0  0  0  0  0  0  0  0
   27.2811   20.8776    9.4013 N   0  0  0  0  0  0  0  0  0  0  0  0
   28.4424   20.9468   11.5561 C   0  0  0  0  0  0  0  0  0  0  0  0
   28.4293   22.2686   11.6014 N   0  0  0  0  0  0  0  0  0  0  0  0
   28.9666   22.5117   12.7937 N   0  0  0  0  0  0  0  0  0  0  0  0
   29.2854   21.3384   13.4033 C   0  0  0  0  0  0  0  0  0  0  0  0
   28.9587   20.3412   12.6235 N   0  0  0  0  0  0  0  0  0  0  0  0
   26.5691   18.2663    7.3824 H   0  0  0  0  0  0  0  0  0  0  0  0
   28.5385   18.2034   11.0424 H   0  0  0  0  0  0  0  0  0  0  0  0
   29.0574   23.4414   13.1933 H   0  0  0  0  0  0  0  0  0  0  0  0
   29.7128   21.3188   14.3954 H   0  0  0  0  0  0  0  0  0  0  0  0
   27.6521   17.0208    9.1090 H   0  0  0  0  0  0  0  0  0  0  0  0
   26.1520   20.8867    7.3442 O   0  0  0  0  0  0  0  0  0  0  0  0
   25.3901   19.9358    6.6347 C   0  0  0  0  0  0  0  0  0  0  0  0
   24.8371   20.4445    5.8056 H   0  0  0  0  0  0  0  0  0  0  0  0
   26.0702   19.1572    6.2067 H   0  0  0  0  0  0  0  0  0  0  0  0
   24.6584   19.4512    7.3287 H   0  0  0  0  0  0  0  0  0  0  0  0
  1  2  2  0
  1  6  1  0
  1 17  1  0
  2  3  1  0
  2 12  1  0
  3  4  2  0
  3 16  1  0
  4  5  1  0
  4 13  1  0
  5  6  2  0
  5  7  1  0
  7  8  2  0
  7 11  1  0
  8  9  1  0
  9 10  1  0
  9 14  1  0
 10 11  2  0
 10 15  1  0
 17 18  1  0
 18 19  1  0
 18 20  1  0
 18 21  1  0
M  END
>  <i_m_Source_File_Index>  (4) 
4

>  <b_m_subgroup_collapsed>  (4) 
0

>  <r_exp_dg>  (4) 
-5.3

>  <s_m_Source_File>  (4) 
frag_liga_auto_ligands.sdf

>  <s_m_Source_Path>  (4) 
/pmount/projects/site/pred/cadd/steinbt2/projects/2023-OpenFFtest/2024-07-01-OpenFEBenchmarkProject/LigA

>  <s_m_entry_id>  (4) 
7

>  <s_m_entry_name>  (4) 
frag_liga_auto_ligands.4

>  <s_m_subgroup_title>  (4) 
frag_liga_auto_ligands

>  <s_m_subgroupid>  (4) 
frag_liga_auto_ligands

>  <s_user_duplicate_titles>  (4) 
6

>  <experimental dG reference units>  (4) 
kcal/mol

>  <experimental dG reference field>  (4) 
r_exp_dg

>  <kJ/mol experimental dG>  (4) 
-22.1752

>  <kcal/mol experimental dG>  (4) 
-5.3

>  <AmberAM1BCCCache>  (4) 
gASV6gEAAAAAAABdlCiMFm51bXB5Ll9jb3JlLm11bHRpYXJyYXmUjAZzY2FsYXKUk5SMBW51bXB5lIwFZHR5cGWUk5SMAmY4lImIh5RSlChLA4wBPJROTk5K/////0r/////SwB0lGJDCOeMByH9Zx1AlIaUUpRoA2gJQwgvAK/aWeAHwJSGlFKUaANoCUMITf3UUslA7L+UhpRSlGgDaAlDCNL97K59+AfAlIaUUpRoA2gJQwh7xmA/X/YTQJSGlFKUaANoCUMIMODUANBtIMCUhpRSlGgDaAlDCELqLUgzmRVAlIaUUpRoA2gJQwgO0kYXDvwXwJSGlFKUaANoCUMIgUwPIMdr/r+UhpRSlGgDaAlDCNzNzKGepRJAlIaUUpRoA2gJQwjwBKT2kB8ewJSGlFKUaANoCUMI3y7pVxsB/j+UhpRSlGgDaAlDCA89dV5EcP0/lIaUUpRoA2gJQwjRnz+qGgEPQJSGlFKUaANoCUMITr0Ea7mb6z+UhpRSlGgDaAlDCEF/rSdZzPo/lIaUUpRoA2gJQwilypEbjDcVwJSGlFKUaANoCUMIQwSzERuJ9z+UhpRSlGgDaAlDCPgM/0PwSOM/lIaUUpRoA2gJQwj4DP9D8EjjP5SGlFKUaANoCUMI+Az/Q/BI4z+UhpRSlGUu

$$$$
11
     RDKit          3D

 26 28  0  0  1  0  0  0  0  0999 V2000
   26.7934   20.1983    8.3316 C   0  0  0  0  0  0  0  0  0  0  0  0
   26.9388   18.8122    8.2365 C   0  0  0  0  0  0  0  0  0  0  0  0
   27.5595   18.0924    9.2071 C   0  0  0  0  0  0  0  0  0  0  0  0
   28.0424   18.7797   10.2764 C   0  0  0  0  0  0  0  0  0  0  0  0
   27.9127   20.1711   10.3829 C   0  0  0  0  0  0  0  0  0  0  0  0
   27.2811   20.8776    9.4013 N   0  0  0  0  0  0  0  0  0  0  0  0
   28.4424   20.9468   11.5561 C   0  0  0  0  0  0  0  0  0  0  0  0
   28.4293   22.2686   11.6014 N   0  0  0  0  0  0  0  0  0  0  0  0
   28.9666   22.5117   12.7937 N   0  0  0  0  0  0  0  0  0  0  0  0
   26.5691   18.2663    7.3824 H   0  0  0  0  0  0  0  0  0  0  0  0
   28.5385   18.2034   11.0424 H   0  0  0  0  0  0  0  0  0  0  0  0
   29.0574   23.4414   13.1933 H   0  0  0  0  0  0  0  0  0  0  0  0
   27.6521   17.0208    9.1090 H   0  0  0  0  0  0  0  0  0  0  0  0
   25.3993   19.9471    6.6433 F   0  0  0  0  0  0  0  0  0  0  0  0
   26.1506   20.8654    7.3480 C   0  0  0  0  0  0  0  0  0  0  0  0
   25.3261   21.8284    7.8931 F   0  0  0  0  0  0  0  0  0  0  0  0
   27.0673   21.4658    6.5092 F   0  0  0  0  0  0  0  0  0  0  0  0
   29.2880   21.4204   13.4120 C   0  0  0  0  0  0  0  0  0  0  0  0
   28.9240   20.3701   12.5534 C   0  0  0  0  0  0  0  0  0  0  0  0
   29.1462   19.0382   12.9396 C   0  0  0  0  0  0  0  0  0  0  0  0
   29.7324   18.7565   14.1845 C   0  0  0  0  0  0  0  0  0  0  0  0
   30.0963   19.8067   15.0432 N   0  0  0  0  0  0  0  0  0  0  0  0
   29.8741   21.1388   14.6569 C   0  0  0  0  0  0  0  0  0  0  0  0
   28.8602   18.2131   12.2651 H   0  0  0  0  0  0  0  0  0  0  0  0
   29.9069   17.7101   14.4880 H   0  0  0  0  0  0  0  0  0  0  0  0
   30.1601   21.9638   15.3315 H   0  0  0  0  0  0  0  0  0  0  0  0
  1  2  2  0
  1  6  1  0
  1 15  1  0
  2  3  1  0
  2 10  1  0
  3  4  2  0
  3 13  1  0
  4  5  1  0
  4 11  1  0
  5  6  2  0
  5  7  1  0
  7  8  2  0
  7 19  1  0
  8  9  1  0
  9 12  1  0
  9 18  1  0
 14 15  1  0
 15 16  1  0
 15 17  1  0
 18 19  2  0
 18 23  1  0
 19 20  1  0
 20 21  2  0
 20 24  1  0
 21 22  1  0
 21 25  1  0
 22 23  2  0
 23 26  1  0
M  END
>  <i_m_Source_File_Index>  (5) 
5

>  <b_m_subgroup_collapsed>  (5) 
0

>  <r_exp_dg>  (5) 
-9.08

>  <s_m_Source_File>  (5) 
frag_liga_auto_ligands.sdf

>  <s_m_Source_Path>  (5) 
/pmount/projects/site/pred/cadd/steinbt2/projects/2023-OpenFFtest/2024-07-01-OpenFEBenchmarkProject/LigA

>  <s_m_entry_id>  (5) 
8

>  <s_m_entry_name>  (5) 
frag_liga_auto_ligands.5

>  <s_m_subgroup_title>  (5) 
frag_liga_auto_ligands

>  <s_m_subgroupid>  (5) 
frag_liga_auto_ligands

>  <s_user_duplicate_titles>  (5) 
11

>  <experimental dG reference units>  (5) 
kcal/mol

>  <experimental dG reference field>  (5) 
r_exp_dg

>  <kJ/mol experimental dG>  (5) 
-37.99072

>  <kcal/mol experimental dG>  (5) 
-9.08

>  <AmberAM1BCCCache>  (5) 
gASVSQIAAAAAAABdlCiMFm51bXB5Ll9jb3JlLm11bHRpYXJyYXmUjAZzY2FsYXKUk5SMBW51bXB5lIwFZHR5cGWUk5SMAmY4lImIh5RSlChLA4wBPJROTk5K/////0r/////SwB0lGJDCNeBOuJMjA9AlIaUUpRoA2gJQwgUw3TbBcwCwJSGlFKUaANoCUMI0aFIB7sc8r+UhpRSlGgDaAlDCCzKul6agwLAlIaUUpRoA2gJQwjWcCPNNP0TQJSGlFKUaANoCUMIHLfeizN4HcCUhpRSlGgDaAlDCMORqiN3yQhAlIaUUpRoA2gJQwj5PFYT9hsXwJSGlFKUaANoCUMISOCdtVy0tD+UhpRSlGgDaAlDCDqaqsV8i/4/lIaUUpRoA2gJQwiVghYQ43z/P5SGlFKUaANoCUMIxFCcCZN2D0CUhpRSlGgDaAlDCD3OVohoePw/lIaUUpRoA2gJQwisEIzIHpAFwJSGlFKUaANoCUMIMwvWDHwgHECUhpRSlGgDaAlDCKwQjMgekAXAlIaUUpRoA2gJQwisEIzIHpAFwJSGlFKUaANoCUMI2XNIiHPfAcCUhpRSlGgDaAlDCP0gxE+eVfu/lIaUUpRoA2gJQwjBTJISSqz9v5SGlFKUaANoCUMIyY2HmNzKEECUhpRSlGgDaAlDCGClr0NALR7AlIaUUpRoA2gJQwjGWdvV8N0SQJSGlFKUaANoCUMIvTC9VWxnAECUhpRSlGgDaAlDCPqgAtJY7NU/lIaUUpRoA2gJQwjOxiKOG2rUP5SGlFKUZS4=

$$$$
10
     RDKit          3D

 20 21  0  0  1  0  0  0  0  0999 V2000
   26.7934   20.1983    8.3316 C   0  0  0  0  0  0  0  0  0  0  0  0
   26.9388   18.8122    8.2365 C   0  0  0  0  0  0  0  0  0  0  0  0
   27.5595   18.0924    9.2071 C   0  0  0  0  0  0  0  0  0  0  0  0
   28.0424   18.7797   10.2764 C   0  0  0  0  0  0  0  0  0  0  0  0
   27.9127   20.1711   10.3829 C   0  0  0  0  0  0  0  0  0  0  0  0
   27.2811   20.8776    9.4013 N   0  0  0  0  0  0  0  0  0  0  0  0
   28.4424   20.9468   11.5561 C   0  0  0  0  0  0  0  0  0  0  0  0
   28.4293   22.2686   11.6014 N   0  0  0  0  0  0  0  0  0  0  0  0
   28.9666   22.5117   12.7937 N   0  0  0  0  0  0  0  0  0  0  0  0
   29.2854   21.3384   13.4033 C   0  0  0  0  0  0  0  0  0  0  0  0
   28.9587   20.3412   12.6235 N   0  0  0  0  0  0  0  0  0  0  0  0
   26.5691   18.2663    7.3824 H   0  0  0  0  0  0  0  0  0  0  0  0
   28.5385   18.2034   11.0424 H   0  0  0  0  0  0  0  0  0  0  0  0
   29.0574   23.4414   13.1933 H   0  0  0  0  0  0  0  0  0  0  0  0
   29.7128   21.3188   14.3954 H   0  0  0  0  0  0  0  0  0  0  0  0
   27.6521   17.0208    9.1090 H   0  0  0  0  0  0  0  0  0  0  0  0
   25.3993   19.9471    6.6433 F   0  0  0  0  0  0  0  0  0  0  0  0
   26.1506   20.8654    7.3480 C   0  0  0  0  0  0  0  0  0  0  0  0
   25.3261   21.8284    7.8931 F   0  0  0  0  0  0  0  0  0  0  0  0
   27.0673   21.4658    6.5092 F   0  0  0  0  0  0  0  0  0  0  0  0
  1  2  2  0
  1  6  1  0
  1 18  1  0
  2  3  1  0
  2 12  1  0
  3  4  2  0
  3 16  1  0
  4  5  1  0
  4 13  1  0
  5  6  2  0
  5  7  1  0
  7  8  2  0
  7 11  1  0
  8  9  1  0
  9 10  1  0
  9 14  1  0
 10 11  2  0
 10 15  1  0
 17 18  1  0
 18 19  1  0
 18 20  1  0
M  END
>  <i_m_Source_File_Index>  (6) 
6

>  <b_m_subgroup_collapsed>  (6) 
0

>  <r_exp_dg>  (6) 
-6.54

>  <s_m_Source_File>  (6) 
frag_liga_auto_ligands.sdf

>  <s_m_Source_Path>  (6) 
/pmount/projects/site/pred/cadd/steinbt2/projects/2023-OpenFFtest/2024-07-01-OpenFEBenchmarkProject/LigA

>  <s_m_entry_id>  (6) 
9

>  <s_m_entry_name>  (6) 
frag_liga_auto_ligands.6

>  <s_m_subgroup_title>  (6) 
frag_liga_auto_ligands

>  <s_m_subgroupid>  (6) 
frag_liga_auto_ligands

>  <s_user_duplicate_titles>  (6) 
10

>  <experimental dG reference units>  (6) 
kcal/mol

>  <experimental dG reference field>  (6) 
r_exp_dg

>  <kJ/mol experimental dG>  (6) 
-27.36336

>  <kcal/mol experimental dG>  (6) 
-6.54

>  <AmberAM1BCCCache>  (6) 
gASV1wEAAAAAAABdlCiMFm51bXB5Ll9jb3JlLm11bHRpYXJyYXmUjAZzY2FsYXKUk5SMBW51bXB5lIwFZHR5cGWUk5SMAmY4lImIh5RSlChLA4wBPJROTk5K/////0r/////SwB0lGJDCKK6Vwn4sw5AlIaUUpRoA2gJQwhiq/MYZVICwJSGlFKUaANoCUMIaD6av40887+UhpRSlGgDaAlDCBywd3AdIgLAlIaUUpRoA2gJQwi517UPQ6MSQJSGlFKUaANoCUMIFlG+5iW5G8CUhpRSlGgDaAlDCK7iDU2PQxVAlIaUUpRoA2gJQwhH5E/XEOUXwJSGlFKUaANoCUMIH5q3d4rf/b+UhpRSlGgDaAlDCBi4IKDR4BJAlIaUUpRoA2gJQwgTHRIkOswdwJSGlFKUaANoCUMIFNO0+S4e/z+UhpRSlGgDaAlDCIncvKifvf4/lIaUUpRoA2gJQwhgey0qFS8PQJSGlFKUaANoCUMIoRisDMIU7T+UhpRSlGgDaAlDCEYV7cJDevw/lIaUUpRoA2gJQwgn7UArMY8FwJSGlFKUaANoCUMIO5j3gzpRHECUhpRSlGgDaAlDCCftQCsxjwXAlIaUUpRoA2gJQwgn7UArMY8FwJSGlFKUZS4=

$$$$
8
     RDKit          3D

 27 29  0  0  1  0  0  0  0  0999 V2000
   26.7934   20.1983    8.3316 C   0  0  0  0  0  0  0  0  0  0  0  0
   26.9388   18.8122    8.2365 C   0  0  0  0  0  0  0  0  0  0  0  0
   27.5595   18.0924    9.2071 C   0  0  0  0  0  0  0  0  0  0  0  0
   28.0424   18.7797   10.2764 C   0  0  0  0  0  0  0  0  0  0  0  0
   27.9127   20.1711   10.3829 C   0  0  0  0  0  0  0  0  0  0  0  0
   27.2811   20.8776    9.4013 N   0  0  0  0  0  0  0  0  0  0  0  0
   28.4424   20.9468   11.5561 C   0  0  0  0  0  0  0  0  0  0  0  0
   28.4293   22.2686   11.6014 N   0  0  0  0  0  0  0  0  0  0  0  0
   28.9666   22.5117   12.7937 N   0  0  0  0  0  0  0  0  0  0  0  0
   29.2854   21.3384   13.4033 C   0  0  0  0  0  0  0  0  0  0  0  0
   28.9587   20.3412   12.6235 N   0  0  0  0  0  0  0  0  0  0  0  0
   26.5691   18.2663    7.3824 H   0  0  0  0  0  0  0  0  0  0  0  0
   28.5385   18.2034   11.0424 H   0  0  0  0  0  0  0  0  0  0  0  0
   29.0574   23.4414   13.1933 H   0  0  0  0  0  0  0  0  0  0  0  0
   29.7128   21.3188   14.3954 H   0  0  0  0  0  0  0  0  0  0  0  0
   27.6521   17.0208    9.1090 H   0  0  0  0  0  0  0  0  0  0  0  0
   26.0623   22.0560    7.4842 H   0  0  0  0  0  0  0  0  0  0  0  0
   26.0845   20.9731    7.2438 C   0  0  0  0  0  0  0  0  0  0  0  0
   26.5908   20.6220    5.8402 C   0  0  0  0  0  0  0  0  0  0  0  0
   25.4474   19.6069    5.7313 C   0  0  0  0  0  0  0  0  0  0  0  0
   24.7339   20.3574    6.8615 C   0  0  0  0  0  0  0  0  0  0  0  0
   26.4773   21.4703    5.1222 H   0  0  0  0  0  0  0  0  0  0  0  0
   27.6146   20.1786    5.8095 H   0  0  0  0  0  0  0  0  0  0  0  0
   24.9092   19.6122    4.7536 H   0  0  0  0  0  0  0  0  0  0  0  0
   25.7609   18.5784    6.0345 H   0  0  0  0  0  0  0  0  0  0  0  0
   24.0120   21.1188    6.4777 H   0  0  0  0  0  0  0  0  0  0  0  0
   24.2799   19.7032    7.6436 H   0  0  0  0  0  0  0  0  0  0  0  0
  1  2  2  0
  1  6  1  0
  1 18  1  0
  2  3  1  0
  2 12  1  0
  3  4  2  0
  3 16  1  0
  4  5  1  0
  4 13  1  0
  5  6  2  0
  5  7  1  0
  7  8  2  0
  7 11  1  0
  8  9  1  0
  9 10  1  0
  9 14  1  0
 10 11  2  0
 10 15  1  0
 17 18  1  0
 18 19  1  0
 18 21  1  0
 19 20  1  0
 19 22  1  0
 19 23  1  0
 20 21  1  0
 20 24  1  0
 20 25  1  0
 21 26  1  0
 21 27  1  0
M  END
>  <i_m_Source_File_Index>  (7) 
7

>  <b_m_subgroup_collapsed>  (7) 
0

>  <r_exp_dg>  (7) 
-5.83

>  <s_m_Source_File>  (7) 
frag_liga_auto_ligands.sdf

>  <s_m_Source_Path>  (7) 
/pmount/projects/site/pred/cadd/steinbt2/projects/2023-OpenFFtest/2024-07-01-OpenFEBenchmarkProject/LigA

>  <s_m_entry_id>  (7) 
10

>  <s_m_entry_name>  (7) 
frag_liga_auto_ligands.7

>  <s_m_subgroup_title>  (7) 
frag_liga_auto_ligands

>  <s_m_subgroupid>  (7) 
frag_liga_auto_ligands

>  <s_user_duplicate_titles>  (7) 
8

>  <experimental dG reference units>  (7) 
kcal/mol

>  <experimental dG reference field>  (7) 
r_exp_dg

>  <kJ/mol experimental dG>  (7) 
-24.39272

>  <kcal/mol experimental dG>  (7) 
-5.83

>  <AmberAM1BCCCache>  (7) 
gASVXAIAAAAAAABdlCiMFm51bXB5Ll9jb3JlLm11bHRpYXJyYXmUjAZzY2FsYXKUk5SMBW51bXB5lIwFZHR5cGWUk5SMAmY4lImIh5RSlChLA4wBPJROTk5K/////0r/////SwB0lGJDCKnEXC+JEBRAlIaUUpRoA2gJQwglgSqj3cEGwJSGlFKUaANoCUMI09/YmvBM8r+UhpRSlGgDaAlDCLSrzrZYDwXAlIaUUpRoA2gJQwjTOO4Hm34SQJSGlFKUaANoCUMIhL98bazMHcCUhpRSlGgDaAlDCGo02SjQuxVAlIaUUpRoA2gJQwihf3Sd7i0YwJSGlFKUaANoCUMI+RBSP3Ki/r+UhpRSlGgDaAlDCI8bG8QFpBJAlIaUUpRoA2gJQwg+t1XUKSEewJSGlFKUaANoCUMImazeAYUm+z+UhpRSlGgDaAlDCFF9tpZRCf0/lIaUUpRoA2gJQwiVPZ4axeUOQJSGlFKUaANoCUMI6Cp3ffKO6z+UhpRSlGgDaAlDCD/EcrceNfo/lIaUUpRoA2gJQwjkYXrDUmjrP5SGlFKUaANoCUMIryI47iLY+b+UhpRSlGgDaAlDCIUWJzEbGO+/lIaUUpRoA2gJQwhVRNd3QGDyv5SGlFKUaANoCUMIhRYnMRsY77+UhpRSlGgDaAlDCO79fgsWL+U/lIaUUpRoA2gJQwju/X4LFi/lP5SGlFKUaANoCUMIIUC31CqL4j+UhpRSlGgDaAlDCCFAt9Qqi+I/lIaUUpRoA2gJQwju/X4LFi/lP5SGlFKUaANoCUMI7v1+CxYv5T+UhpRSlGUu

$$$$
3
     RDKit          3D

 16 17  0  0  1  0  0  0  0  0999 V2000
   25.9827   21.0685    7.0835 Cl  0  0  0  0  0  0  0  0  0  0  0  0
   26.7934   20.1983    8.3316 C   0  0  0  0  0  0  0  0  0  0  0  0
   26.9388   18.8122    8.2365 C   0  0  0  0  0  0  0  0  0  0  0  0
   27.5595   18.0924    9.2071 N   0  0  0  0  0  0  0  0  0  0  0  0
   28.0424   18.7797   10.2764 C   0  0  0  0  0  0  0  0  0  0  0  0
   27.9127   20.1711   10.3829 C   0  0  0  0  0  0  0  0  0  0  0  0
   27.2811   20.8776    9.4013 N   0  0  0  0  0  0  0  0  0  0  0  0
   28.4424   20.9468   11.5561 C   0  0  0  0  0  0  0  0  0  0  0  0
   28.4293   22.2686   11.6014 N   0  0  0  0  0  0  0  0  0  0  0  0
   28.9666   22.5117   12.7937 N   0  0  0  0  0  0  0  0  0  0  0  0
   29.2854   21.3384   13.4033 C   0  0  0  0  0  0  0  0  0  0  0  0
   28.9587   20.3412   12.6235 N   0  0  0  0  0  0  0  0  0  0  0  0
   26.5691   18.2663    7.3824 H   0  0  0  0  0  0  0  0  0  0  0  0
   28.5385   18.2034   11.0424 H   0  0  0  0  0  0  0  0  0  0  0  0
   29.0574   23.4414   13.1933 H   0  0  0  0  0  0  0  0  0  0  0  0
   29.7128   21.3188   14.3954 H   0  0  0  0  0  0  0  0  0  0  0  0
  1  2  1  0
  2  3  2  0
  2  7  1  0
  3  4  1  0
  3 13  1  0
  4  5  2  0
  5  6  1  0
  5 14  1  0
  6  7  2  0
  6  8  1  0
  8  9  2  0
  8 12  1  0
  9 10  1  0
 10 11  1  0
 10 15  1  0
 11 12  2  0
 11 16  1  0
M  END
>  <i_m_Source_File_Index>  (8) 
8

>  <b_m_subgroup_collapsed>  (8) 
0

>  <r_exp_dg>  (8) 
-6.03

>  <s_m_Source_File>  (8) 
frag_liga_auto_ligands.sdf

>  <s_m_Source_Path>  (8) 
/pmount/projects/site/pred/cadd/steinbt2/projects/2023-OpenFFtest/2024-07-01-OpenFEBenchmarkProject/LigA

>  <s_m_entry_id>  (8) 
11

>  <s_m_entry_name>  (8) 
frag_liga_auto_ligands.8

>  <s_m_subgroup_title>  (8) 
frag_liga_auto_ligands

>  <s_m_subgroupid>  (8) 
frag_liga_auto_ligands

>  <s_user_duplicate_titles>  (8) 
3

>  <experimental dG reference units>  (8) 
kcal/mol

>  <experimental dG reference field>  (8) 
r_exp_dg

>  <kJ/mol experimental dG>  (8) 
-25.22952

>  <kcal/mol experimental dG>  (8) 
-6.03

>  <AmberAM1BCCCache>  (8) 
gASViwEAAAAAAABdlCiMFm51bXB5Ll9jb3JlLm11bHRpYXJyYXmUjAZzY2FsYXKUk5SMBW51bXB5lIwFZHR5cGWUk5SMAmY4lImIh5RSlChLA4wBPJROTk5K/////0r/////SwB0lGJDCMXn+RqI8Pe/lIaUUpRoA2gJQwi4O0+Vk2YRQJSGlFKUaANoCUMIvVLNUc0YDECUhpRSlGgDaAlDCG0u64zpah3AlIaUUpRoA2gJQwiOREFLpKkMQJSGlFKUaANoCUMIfS35U2CKC0CUhpRSlGgDaAlDCClacLZSrBvAlIaUUpRoA2gJQwg915lRhmgVQJSGlFKUaANoCUMIz+leZXP8F8CUhpRSlGgDaAlDCOPHh2WuS/2/lIaUUpRoA2gJQwiQshESb8kSQJSGlFKUaANoCUMIECwpYQ2DHcCUhpRSlGgDaAlDCLrrDBKQKuI/lIaUUpRoA2gJQwj8stz3623kP5SGlFKUaANoCUMIOmnJirtID0CUhpRSlGgDaAlDCATQG49be+0/lIaUUpRlLg==

$$$$
7
     RDKit          3D

 20 21  0  0  1  0  0  0  0  0999 V2000
   26.7934   20.1983    8.3316 C   0  0  0  0  0  0  0  0  0  0  0  0
   26.9388   18.8122    8.2365 C   0  0  0  0  0  0  0  0  0  0  0  0
   27.5595   18.0924    9.2071 C   0  0  0  0  0  0  0  0  0  0  0  0
   28.0424   18.7797   10.2764 C   0  0  0  0  0  0  0  0  0  0  0  0
   27.9127   20.1711   10.3829 C   0  0  0  0  0  0  0  0  0  0  0  0
   27.2811   20.8776    9.4013 N   0  0  0  0  0  0  0  0  0  0  0  0
   28.4424   20.9468   11.5561 C   0  0  0  0  0  0  0  0  0  0  0  0
   28.4293   22.2686   11.6014 N   0  0  0  0  0  0  0  0  0  0  0  0
   28.9666   22.5117   12.7937 N   0  0  0  0  0  0  0  0  0  0  0  0
   29.2854   21.3384   13.4033 C   0  0  0  0  0  0  0  0  0  0  0  0
   28.9587   20.3412   12.6235 N   0  0  0  0  0  0  0  0  0  0  0  0
   26.5691   18.2663    7.3824 H   0  0  0  0  0  0  0  0  0  0  0  0
   28.5385   18.2034   11.0424 H   0  0  0  0  0  0  0  0  0  0  0  0
   29.0574   23.4414   13.1933 H   0  0  0  0  0  0  0  0  0  0  0  0
   29.7128   21.3188   14.3954 H   0  0  0  0  0  0  0  0  0  0  0  0
   27.6521   17.0208    9.1090 H   0  0  0  0  0  0  0  0  0  0  0  0
   26.0777   20.9665    7.2298 C   0  0  0  0  0  0  0  0  0  0  0  0
   26.0623   22.0560    7.4842 H   0  0  0  0  0  0  0  0  0  0  0  0
   26.6166   20.8174    6.2606 H   0  0  0  0  0  0  0  0  0  0  0  0
   25.0281   20.5909    7.1345 H   0  0  0  0  0  0  0  0  0  0  0  0
  1  2  2  0
  1  6  1  0
  1 17  1  0
  2  3  1  0
  2 12  1  0
  3  4  2  0
  3 16  1  0
  4  5  1  0
  4 13  1  0
  5  6  2  0
  5  7  1  0
  7  8  2  0
  7 11  1  0
  8  9  1  0
  9 10  1  0
  9 14  1  0
 10 11  2  0
 10 15  1  0
 17 18  1  0
 17 19  1  0
 17 20  1  0
M  END
>  <i_m_Source_File_Index>  (9) 
9

>  <b_m_subgroup_collapsed>  (9) 
0

>  <r_exp_dg>  (9) 
-5.25

>  <s_m_Source_File>  (9) 
frag_liga_auto_ligands.sdf

>  <s_m_Source_Path>  (9) 
/pmount/projects/site/pred/cadd/steinbt2/projects/2023-OpenFFtest/2024-07-01-OpenFEBenchmarkProject/LigA

>  <s_m_entry_id>  (9) 
12

>  <s_m_entry_name>  (9) 
frag_liga_auto_ligands.9

>  <s_m_subgroup_title>  (9) 
frag_liga_auto_ligands

>  <s_m_subgroupid>  (9) 
frag_liga_auto_ligands

>  <s_user_duplicate_titles>  (9) 
7

>  <experimental dG reference units>  (9) 
kcal/mol

>  <experimental dG reference field>  (9) 
r_exp_dg

>  <kJ/mol experimental dG>  (9) 
-21.966

>  <kcal/mol experimental dG>  (9) 
-5.25

>  <AmberAM1BCCCache>  (9) 
gASV1wEAAAAAAABdlCiMFm51bXB5Ll9jb3JlLm11bHRpYXJyYXmUjAZzY2FsYXKUk5SMBW51bXB5lIwFZHR5cGWUk5SMAmY4lImIh5RSlChLA4wBPJROTk5K/////0r/////SwB0lGJDCN+UR3tmZxNAlIaUUpRoA2gJQwh2/y5EUdoGwJSGlFKUaANoCUMILuFlNJBN8r+UhpRSlGgDaAlDCGIslYOoDwXAlIaUUpRoA2gJQwgf9sj1lpYSQJSGlFKUaANoCUMITvw8EgrxHcCUhpRSlGgDaAlDCBP0dUKouxVAlIaUUpRoA2gJQwglwbiZBCIYwJSGlFKUaANoCUMIVBLf2BGj/r+UhpRSlGgDaAlDCDjbt93doxJAlIaUUpRoA2gJQwiU97i6USEewJSGlFKUaANoCUMIs7RZF1bF+j+UhpRSlGgDaAlDCPZ7Kf2xCP0/lIaUUpRoA2gJQwjnvNdNdeUOQJSGlFKUaANoCUMIMihdSrON6z+UhpRSlGgDaAlDCOTC5R1/NPo/lIaUUpRoA2gJQwiIVBeiJv/7v5SGlFKUaANoCUMIfVs/Fphc5D+UhpRSlGgDaAlDCH1bPxaYXOQ/lIaUUpRoA2gJQwh9Wz8WmFzkP5SGlFKUZS4=

$$$$
13
     RDKit          3D

 34 36  0  0  1  0  0  0  0  0999 V2000
   26.7934   20.1983    8.3316 C   0  0  0  0  0  0  0  0  0  0  0  0
   26.9388   18.8122    8.2365 C   0  0  0  0  0  0  0  0  0  0  0  0
   27.5595   18.0924    9.2071 C   0  0  0  0  0  0  0  0  0  0  0  0
   28.0424   18.7797   10.2764 N   0  0  0  0  0  0  0  0  0  0  0  0
   27.9127   20.1711   10.3829 C   0  0  0  0  0  0  0  0  0  0  0  0
   27.2811   20.8776    9.4013 N   0  0  0  0  0  0  0  0  0  0  0  0
   28.4424   20.9468   11.5561 C   0  0  0  0  0  0  0  0  0  0  0  0
   28.4293   22.2686   11.6014 N   0  0  0  0  0  0  0  0  0  0  0  0
   28.9666   22.5117   12.7937 N   0  0  0  0  0  0  0  0  0  0  0  0
   26.5691   18.2663    7.3824 H   0  0  0  0  0  0  0  0  0  0  0  0
   29.0574   23.4414   13.1933 H   0  0  0  0  0  0  0  0  0  0  0  0
   25.3993   19.9471    6.6433 F   0  0  0  0  0  0  0  0  0  0  0  0
   26.1506   20.8654    7.3480 C   0  0  0  0  0  0  0  0  0  0  0  0
   25.3261   21.8284    7.8931 F   0  0  0  0  0  0  0  0  0  0  0  0
   27.0673   21.4658    6.5092 F   0  0  0  0  0  0  0  0  0  0  0  0
   29.2880   21.4204   13.4120 C   0  0  0  0  0  0  0  0  0  0  0  0
   28.9240   20.3701   12.5534 C   0  0  0  0  0  0  0  0  0  0  0  0
   29.1462   19.0382   12.9396 C   0  0  0  0  0  0  0  0  0  0  0  0
   29.7324   18.7565   14.1845 C   0  0  0  0  0  0  0  0  0  0  0  0
   30.0963   19.8067   15.0432 N   0  0  0  0  0  0  0  0  0  0  0  0
   29.8741   21.1388   14.6569 C   0  0  0  0  0  0  0  0  0  0  0  0
   28.8602   18.2131   12.2651 H   0  0  0  0  0  0  0  0  0  0  0  0
   29.9069   17.7101   14.4880 H   0  0  0  0  0  0  0  0  0  0  0  0
   30.1601   21.9638   15.3315 H   0  0  0  0  0  0  0  0  0  0  0  0
   27.6779   16.7232    9.0818 N   0  0  0  0  0  0  0  0  0  0  0  0
   27.3030   16.2563    8.2684 H   0  0  0  0  0  0  0  0  0  0  0  0
   28.3400   15.9554   10.1170 C   0  0  0  0  0  0  0  0  0  0  0  0
   29.2388   16.5148   10.4790 H   0  0  0  0  0  0  0  0  0  0  0  0
   27.6339   15.7922   10.9696 H   0  0  0  0  0  0  0  0  0  0  0  0
   28.7742   14.6065    9.5509 C   0  0  0  0  0  0  0  0  0  0  0  0
   29.8821   14.4950    9.6610 H   0  0  0  0  0  0  0  0  0  0  0  0
   28.2594   13.7846   10.1089 H   0  0  0  0  0  0  0  0  0  0  0  0
   28.4282   14.5363    8.1858 O   0  0  0  0  0  0  0  0  0  0  0  0
   27.4769   14.6365    8.1469 H   0  0  0  0  0  0  0  0  0  0  0  0
  1  2  2  0
  1  6  1  0
  1 13  1  0
  2  3  1  0
  2 10  1  0
  3  4  2  0
  3 25  1  0
  4  5  1  0
  5  6  2  0
  5  7  1  0
  7  8  2  0
  7 17  1  0
  8  9  1  0
  9 11  1  0
  9 16  1  0
 12 13  1  0
 13 14  1  0
 13 15  1  0
 16 17  2  0
 16 21  1  0
 17 18  1  0
 18 19  2  0
 18 22  1  0
 19 20  1  0
 19 23  1  0
 20 21  2  0
 21 24  1  0
 25 26  1  0
 25 27  1  0
 27 28  1  0
 27 29  1  0
 27 30  1  0
 30 31  1  0
 30 32  1  0
 30 33  1  0
 33 34  1  0
M  END
>  <i_m_Source_File_Index>  (10) 
10

>  <b_m_subgroup_collapsed>  (10) 
0

>  <r_exp_dg>  (10) 
-10.67

>  <s_m_Source_File>  (10) 
frag_liga_auto_ligands.sdf

>  <s_m_Source_Path>  (10) 
/pmount/projects/site/pred/cadd/steinbt2/projects/2023-OpenFFtest/2024-07-01-OpenFEBenchmarkProject/LigA

>  <s_m_entry_id>  (10) 
13

>  <s_m_entry_name>  (10) 
frag_liga_auto_ligands.10

>  <s_m_subgroup_title>  (10) 
frag_liga_auto_ligands

>  <s_m_subgroupid>  (10) 
frag_liga_auto_ligands

>  <s_user_duplicate_titles>  (10) 
13

>  <experimental dG reference units>  (10) 
kcal/mol

>  <experimental dG reference field>  (10) 
r_exp_dg

>  <kJ/mol experimental dG>  (10) 
-44.643280000000004

>  <kcal/mol experimental dG>  (10) 
-10.67

>  <AmberAM1BCCCache>  (10) 
gASV4QIAAAAAAABdlCiMFm51bXB5Ll9jb3JlLm11bHRpYXJyYXmUjAZzY2FsYXKUk5SMBW51bXB5lIwFZHR5cGWUk5SMAmY4lImIh5RSlChLA4wBPJROTk5K/////0r/////SwB0lGJDCHzQyuROsxJAlIaUUpRoA2gJQwhKXcEV+EUSwJSGlFKUaANoCUMIrm9jB2wzIECUhpRSlGgDaAlDCL4rwAauayHAlIaUUpRoA2gJQwi+JAK9EaMgQJSGlFKUaANoCUMIDqkl84eWH8CUhpRSlGgDaAlDCKhRjqpDOghAlIaUUpRoA2gJQwhSpmIcOXcUwJSGlFKUaANoCUMI31wpYq+/rT+UhpRSlGgDaAlDCOrrHIWACABAlIaUUpRoA2gJQwjA/W8yfqgPQJSGlFKUaANoCUMIDWZ6yw9GBcCUhpRSlGgDaAlDCODiILdfLRxAlIaUUpRoA2gJQwgNZnrLD0YFwJSGlFKUaANoCUMIDWZ6yw9GBcCUhpRSlGgDaAlDCK646FhfPgLAlIaUUpRoA2gJQwg01agE8WD6v5SGlFKUaANoCUMI9czKBLHK/r+UhpRSlGgDaAlDCEdk8SzS4xBAlIaUUpRoA2gJQwj5yOBBpFAewJSGlFKUaANoCUMIuCyiKBwbE0CUhpRSlGgDaAlDCDL0URdT7/4/lIaUUpRoA2gJQwiEVOCQN3fUP5SGlFKUaANoCUMImkHQMlY41T+UhpRSlGgDaAlDCPP5QgDJ6iPAlIaUUpRoA2gJQwghfa+RnPsTQJSGlFKUaANoCUMIUBUpHFB3AkCUhpRSlGgDaAlDCNzFlVBWfeo/lIaUUpRoA2gJQwjcxZVQVn3qP5SGlFKUaANoCUMIwigB/1G29j+UhpRSlGgDaAlDCL2JtgJUbdY/lIaUUpRoA2gJQwi9ibYCVG3WP5SGlFKUaANoCUMIJjVxYN4KHMCUhpRSlGgDaAlDCGxbftX5SBNAlIaUUpRlLg==

$$$$
4
     RDKit          3D

 17 18  0  0  1  0  0  0  0  0999 V2000
   25.9827   21.0685    7.0835 Cl  0  0  0  0  0  0  0  0  0  0  0  0
   26.7934   20.1983    8.3316 C   0  0  0  0  0  0  0  0  0  0  0  0
   26.9388   18.8122    8.2365 C   0  0  0  0  0  0  0  0  0  0  0  0
   27.5595   18.0924    9.2071 C   0  0  0  0  0  0  0  0  0  0  0  0
   28.0424   18.7797   10.2764 C   0  0  0  0  0  0  0  0  0  0  0  0
   27.9127   20.1711   10.3829 C   0  0  0  0  0  0  0  0  0  0  0  0
   27.2811   20.8776    9.4013 N   0  0  0  0  0  0  0  0  0  0  0  0
   28.4424   20.9468   11.5561 C   0  0  0  0  0  0  0  0  0  0  0  0
   28.4293   22.2686   11.6014 N   0  0  0  0  0  0  0  0  0  0  0  0
   28.9666   22.5117   12.7937 N   0  0  0  0  0  0  0  0  0  0  0  0
   29.2854   21.3384   13.4033 C   0  0  0  0  0  0  0  0  0  0  0  0
   28.9587   20.3412   12.6235 N   0  0  0  0  0  0  0  0  0  0  0  0
   26.5691   18.2663    7.3824 H   0  0  0  0  0  0  0  0  0  0  0  0
   28.5385   18.2034   11.0424 H   0  0  0  0  0  0  0  0  0  0  0  0
   29.0574   23.4414   13.1933 H   0  0  0  0  0  0  0  0  0  0  0  0
   29.7128   21.3188   14.3954 H   0  0  0  0  0  0  0  0  0  0  0  0
   27.6521   17.0208    9.1090 H   0  0  0  0  0  0  0  0  0  0  0  0
  1  2  1  0
  2  3  2  0
  2  7  1  0
  3  4  1  0
  3 13  1  0
  4  5  2  0
  4 17  1  0
  5  6  1  0
  5 14  1  0
  6  7  2  0
  6  8  1  0
  8  9  2  0
  8 12  1  0
  9 10  1  0
 10 11  1  0
 10 15  1  0
 11 12  2  0
 11 16  1  0
M  END
>  <i_m_Source_File_Index>  (11) 
11

>  <b_m_subgroup_collapsed>  (11) 
0

>  <r_exp_dg>  (11) 
-6.5

>  <s_m_Source_File>  (11) 
frag_liga_auto_ligands.sdf

>  <s_m_Source_Path>  (11) 
/pmount/projects/site/pred/cadd/steinbt2/projects/2023-OpenFFtest/2024-07-01-OpenFEBenchmarkProject/LigA

>  <s_m_entry_id>  (11) 
14

>  <s_m_entry_name>  (11) 
frag_liga_auto_ligands.11

>  <s_m_subgroup_title>  (11) 
frag_liga_auto_ligands

>  <s_m_subgroupid>  (11) 
frag_liga_auto_ligands

>  <s_user_duplicate_titles>  (11) 
4

>  <experimental dG reference units>  (11) 
kcal/mol

>  <experimental dG reference field>  (11) 
r_exp_dg

>  <kJ/mol experimental dG>  (11) 
-27.196

>  <kcal/mol experimental dG>  (11) 
-6.5

>  <AmberAM1BCCCache>  (11) 
gASVngEAAAAAAABdlCiMFm51bXB5Ll9jb3JlLm11bHRpYXJyYXmUjAZzY2FsYXKUk5SMBW51bXB5lIwFZHR5cGWUk5SMAmY4lImIh5RSlChLA4wBPJROTk5K/////0r/////SwB0lGJDCFhsEhqMHPy/lIaUUpRoA2gJQwi9JguCDwUXQJSGlFKUaANoCUMIXNyFJ9q4BcCUhpRSlGgDaAlDCN95d5aXXPG/lIaUUpRoA2gJQwi6+J00LJcEwJSGlFKUaANoCUMICorfry4PE0CUhpRSlGgDaAlDCB9tqq8qSB3AlIaUUpRoA2gJQwjompxaIXMVQJSGlFKUaANoCUMIJCZcXNjxF8CUhpRSlGgDaAlDCNacZDTwQv6/lIaUUpRoA2gJQwhpd/Uw+McSQJSGlFKUaANoCUMIwV09kxPlHcCUhpRSlGgDaAlDCP/nm/Jiyf0/lIaUUpRoA2gJQwhF4xebqvn9P5SGlFKUaANoCUMIpvcUIIYVD0CUhpRSlGgDaAlDCC4TUpP2Tew/lIaUUpRoA2gJQwi9IMwMB4b7P5SGlFKUZS4=

$$$$
