1
     RDKit          3D

 86 89  0  0  1  0  0  0  0  0999 V2000
   14.3070   22.9110    5.6430 C   0  0  1  0  0  0  0  0  0  0  0  0
   14.5790   21.3770    5.3860 C   0  0  0  0  0  0  0  0  0  0  0  0
   13.6330   20.5620    5.4030 O   0  0  0  0  0  0  0  0  0  0  0  0
   15.8330   20.9260    5.1890 N   0  0  0  0  0  0  0  0  0  0  0  0
   16.1290   19.4960    4.9900 C   0  0  1  0  0  0  0  0  0  0  0  0
   16.0890   18.9950    3.5740 C   0  0  0  0  0  0  0  0  0  0  0  0
   15.2500   19.4110    2.4890 C   0  0  0  0  0  0  0  0  0  0  0  0
   15.4250   18.7590    1.2180 C   0  0  0  0  0  0  0  0  0  0  0  0
   16.4120   17.7250    1.0620 C   0  0  0  0  0  0  0  0  0  0  0  0
   17.2390   17.3220    2.1630 C   0  0  0  0  0  0  0  0  0  0  0  0
   17.0540   17.9780    3.4120 C   0  0  0  0  0  0  0  0  0  0  0  0
   17.7990   17.7320    4.7040 C   0  0  0  0  0  0  0  0  0  0  0  0
   17.5230   19.0220    5.5170 C   0  0  1  0  0  0  0  0  0  0  0  0
   18.5730   19.9140    5.1680 O   0  0  0  0  0  0  0  0  0  0  0  0
   14.1110   23.1820    7.1760 C   0  0  0  0  0  0  0  0  0  0  0  0
   14.9730   22.3470    8.1180 C   0  0  0  0  0  0  0  0  0  0  0  0
   14.3750   21.2800    8.8770 C   0  0  0  0  0  0  0  0  0  0  0  0
   15.1730   20.4770    9.7450 C   0  0  0  0  0  0  0  0  0  0  0  0
   16.5770   20.7350    9.8590 C   0  0  0  0  0  0  0  0  0  0  0  0
   17.1780   21.7980    9.1060 C   0  0  0  0  0  0  0  0  0  0  0  0
   16.3810   22.6040    8.2360 C   0  0  0  0  0  0  0  0  0  0  0  0
   15.4120   23.7170    5.2220 O   0  0  0  0  0  0  0  0  0  0  0  0
   13.0310   22.9480    4.7450 C   0  0  0  0  0  0  0  0  0  0  0  0
   12.0780   23.9550    4.3850 N   0  0  0  0  0  0  0  0  0  0  0  0
   11.4140   24.7110    5.3210 N   0  0  0  0  0  0  0  0  0  0  0  0
   11.5480   23.4280    3.1080 C   0  0  0  0  0  0  0  0  0  0  0  0
   10.5400   24.4360    6.3090 C   0  0  0  0  0  0  0  0  0  0  0  0
   10.3620   23.2950    6.7660 O   0  0  0  0  0  0  0  0  0  0  0  0
    9.7620   25.6600    6.8290 C   0  0  2  0  0  0  0  0  0  0  0  0
    9.6900   25.9050    8.3760 C   0  0  0  0  0  0  0  0  0  0  0  0
    8.9260   27.2100    8.7310 C   0  0  0  0  0  0  0  0  0  0  0  0
   11.0770   26.0020    9.0310 C   0  0  0  0  0  0  0  0  0  0  0  0
    8.3920   25.5860    6.2930 N   0  0  0  0  0  0  0  0  0  0  0  0
    7.8210   26.4840    5.4740 C   0  0  0  0  0  0  0  0  0  0  0  0
    8.4670   27.4840    5.1070 O   0  0  0  0  0  0  0  0  0  0  0  0
    6.5440   26.2540    5.0890 O   0  0  0  0  0  0  0  0  0  0  0  0
   10.0340   23.4700    2.9970 C   0  0  0  0  0  0  0  0  0  0  0  0
    9.4220   24.4510    2.1580 C   0  0  0  0  0  0  0  0  0  0  0  0
    7.9990   24.5180    2.0510 C   0  0  0  0  0  0  0  0  0  0  0  0
    7.1660   23.6030    2.7910 C   0  0  0  0  0  0  0  0  0  0  0  0
    9.2150   22.5500    3.7300 C   0  0  0  0  0  0  0  0  0  0  0  0
    7.7910   22.6170    3.6320 C   0  0  0  0  0  0  0  0  0  0  0  0
    5.8550   27.1580    4.2320 C   0  0  0  0  0  0  0  0  0  0  0  0
    8.9130   24.7670    9.0460 C   0  0  0  0  0  0  0  0  0  0  0  0
   16.6066   21.5751    5.1743 H   0  0  0  0  0  0  0  0  0  0  0  0
   15.3750   18.9372    5.5443 H   0  0  0  0  0  0  0  0  0  0  0  0
   14.5171   20.1896    2.6409 H   0  0  0  0  0  0  0  0  0  0  0  0
   14.8134   19.0457    0.3753 H   0  0  0  0  0  0  0  0  0  0  0  0
   16.5391   17.2396    0.1056 H   0  0  0  0  0  0  0  0  0  0  0  0
   17.9744   16.5425    2.0290 H   0  0  0  0  0  0  0  0  0  0  0  0
   18.8664   17.6599    4.4955 H   0  0  0  0  0  0  0  0  0  0  0  0
   17.3544   16.8804    5.2189 H   0  0  0  0  0  0  0  0  0  0  0  0
   17.5021   18.8251    6.5889 H   0  0  0  0  0  0  0  0  0  0  0  0
   18.3959   20.7798    5.5430 H   0  0  0  0  0  0  0  0  0  0  0  0
   13.0607   23.0457    7.4339 H   0  0  0  0  0  0  0  0  0  0  0  0
   14.2782   24.2399    7.3784 H   0  0  0  0  0  0  0  0  0  0  0  0
   13.3165   21.0836    8.7911 H   0  0  0  0  0  0  0  0  0  0  0  0
   14.7178   19.6787   10.3125 H   0  0  0  0  0  0  0  0  0  0  0  0
   17.1861   20.1287   10.5130 H   0  0  0  0  0  0  0  0  0  0  0  0
   18.2367   21.9916    9.1955 H   0  0  0  0  0  0  0  0  0  0  0  0
   16.8334   23.4038    7.6685 H   0  0  0  0  0  0  0  0  0  0  0  0
   15.2169   24.6417    5.3908 H   0  0  0  0  0  0  0  0  0  0  0  0
   12.4600   22.0496    4.9794 H   0  0  0  0  0  0  0  0  0  0  0  0
   13.2812   22.4150    3.8277 H   0  0  0  0  0  0  0  0  0  0  0  0
   11.7063   25.6636    5.1560 H   0  0  0  0  0  0  0  0  0  0  0  0
   11.8920   22.4030    2.9697 H   0  0  0  0  0  0  0  0  0  0  0  0
   11.9865   23.9827    2.2785 H   0  0  0  0  0  0  0  0  0  0  0  0
   10.2275   26.5421    6.3894 H   0  0  0  0  0  0  0  0  0  0  0  0
    8.9032   27.3353    9.8135 H   0  0  0  0  0  0  0  0  0  0  0  0
    9.4318   28.0625    8.2777 H   0  0  0  0  0  0  0  0  0  0  0  0
    7.9061   27.1493    8.3513 H   0  0  0  0  0  0  0  0  0  0  0  0
   10.9627   26.1719   10.1016 H   0  0  0  0  0  0  0  0  0  0  0  0
   11.6225   25.0726    8.8673 H   0  0  0  0  0  0  0  0  0  0  0  0
   11.6308   26.8304    8.5893 H   0  0  0  0  0  0  0  0  0  0  0  0
    7.8722   24.7735    6.5926 H   0  0  0  0  0  0  0  0  0  0  0  0
   10.0354   25.1448    1.6023 H   0  0  0  0  0  0  0  0  0  0  0  0
    7.5397   25.2579    1.4123 H   0  0  0  0  0  0  0  0  0  0  0  0
    9.6737   21.8021    4.3597 H   0  0  0  0  0  0  0  0  0  0  0  0
    7.1834   21.9226    4.1933 H   0  0  0  0  0  0  0  0  0  0  0  0
    4.8467   26.7874    4.0474 H   0  0  0  0  0  0  0  0  0  0  0  0
    5.8002   28.1382    4.7056 H   0  0  0  0  0  0  0  0  0  0  0  0
    6.3898   27.2416    3.2859 H   0  0  0  0  0  0  0  0  0  0  0  0
    8.8659   24.9421   10.1208 H   0  0  0  0  0  0  0  0  0  0  0  0
    7.9022   24.7283    8.6401 H   0  0  0  0  0  0  0  0  0  0  0  0
    9.4174   23.8199    8.8544 H   0  0  0  0  0  0  0  0  0  0  0  0
    5.2845   23.7106    2.6473 Br  0  0  0  0  0  0  0  0  0  0  0  0
  1  2  1  0
  1 15  1  0
  1 22  1  6
  1 23  1  0
  2  3  2  0
  2  4  1  0
  4  5  1  0
  4 45  1  0
  5  6  1  0
  5 13  1  0
  5 46  1  1
  6  7  2  0
  6 11  1  0
  7  8  1  0
  7 47  1  0
  8  9  2  0
  8 48  1  0
  9 10  1  0
  9 49  1  0
 10 11  2  0
 10 50  1  0
 11 12  1  0
 12 13  1  0
 12 51  1  0
 12 52  1  0
 13 14  1  0
 13 53  1  1
 14 54  1  0
 15 16  1  0
 15 55  1  0
 15 56  1  0
 16 17  2  0
 16 21  1  0
 17 18  1  0
 17 57  1  0
 18 19  2  0
 18 58  1  0
 19 20  1  0
 19 59  1  0
 20 21  2  0
 20 60  1  0
 21 61  1  0
 22 62  1  0
 23 24  1  0
 23 63  1  0
 23 64  1  0
 24 25  1  0
 24 26  1  0
 25 27  1  0
 25 65  1  0
 26 37  1  0
 26 66  1  0
 26 67  1  0
 27 28  2  0
 27 29  1  0
 29 30  1  0
 29 33  1  0
 29 68  1  6
 30 31  1  0
 30 32  1  0
 30 44  1  0
 31 69  1  0
 31 70  1  0
 31 71  1  0
 32 72  1  0
 32 73  1  0
 32 74  1  0
 33 34  1  0
 33 75  1  0
 34 35  2  0
 34 36  1  0
 36 43  1  0
 37 38  2  0
 37 41  1  0
 38 39  1  0
 38 76  1  0
 39 40  2  0
 39 77  1  0
 40 42  1  0
 40 86  1  0
 41 42  2  0
 41 78  1  0
 42 79  1  0
 43 80  1  0
 43 81  1  0
 43 82  1  0
 44 83  1  0
 44 84  1  0
 44 85  1  0
M  END
>  <i_m_Source_File_Index>  (1) 
1

>  <b_m_subgroup_collapsed>  (1) 
0

>  <r_exp_dg>  (1) 
-11.7595

>  <s_m_Source_File>  (1) 
hiv_prot_ekegren_ligands.sdf

>  <s_m_Source_Path>  (1) 
path\input_structures\original_structures\misc

>  <s_m_entry_id>  (1) 
11

>  <s_m_entry_name>  (1) 
hiv_prot_ekegren_ligands.1

>  <s_m_subgroup_title>  (1) 
misc->HIV1 protease->hiv_prot_ekegren_ligands

>  <s_m_subgroupid>  (1) 
misc->HIV1 protease->hiv_prot_ekegren_ligands

>  <experimental dG reference units>  (1) 
kcal/mol

>  <experimental dG reference field>  (1) 
r_exp_dg

>  <kJ/mol experimental dG>  (1) 
-49.201747999999995

>  <kcal/mol experimental dG>  (1) 
-11.7595

>  <AmberAM1BCCCache>  (1) 
gASVvQYAAAAAAABdlCiMFm51bXB5Ll9jb3JlLm11bHRpYXJyYXmUjAZzY2FsYXKUk5SMBW51bXB5lIwFZHR5cGWUk5SMAmY4lImIh5RSlChLA4wBPJROTk5K/////0r/////SwB0lGJDCMRpbTwzivE/lIaUUpRoA2gJQwgekM23488dQJSGlFKUaANoCUMIRBIskq8OHcCUhpRSlGgDaAlDCG/xbHMNQxnAlIaUUpRoA2gJQwiIEDYVHST3P5SGlFKUaANoCUMIqSxVNMZi9b+UhpRSlGgDaAlDCP0HzfSuw/K/lIaUUpRoA2gJQwjgLX/j9mv5v5SGlFKUaANoCUMI0j04vmO+9r+UhpRSlGgDaAlDCK3b+wzwkva/lIaUUpRoA2gJQwianz//O8Ltv5SGlFKUaANoCUMIIEL1cvs75b+UhpRSlGgDaAlDCMYoXyJPN/g/lIaUUpRoA2gJQwjOWX0KFT8cwJSGlFKUaANoCUMIGL4gSsHo27+UhpRSlGgDaAlDCO/9L+6lH/G/lIaUUpRoA2gJQwiLNREl4RL3v5SGlFKUaANoCUMINZ5Hm5MG+b+UhpRSlGgDaAlDCDi4nXwJ/fe/lIaUUpRoA2gJQwg1nkebkwb5v5SGlFKUaANoCUMIizURJeES97+UhpRSlGgDaAlDCKrV6b1TaRzAlIaUUpRoA2gJQwiV5iZZOtv6P5SGlFKUaANoCUMIsnnvv+7jFsCUhpRSlGgDaAlDCA4jDnHaMhPAlIaUUpRoA2gJQwhXVi9h9Z8AQJSGlFKUaANoCUMIvBVo+T2RHECUhpRSlGgDaAlDCN39y6XyzhrAlIaUUpRoA2gJQwhLi9BDXorhP5SGlFKUaANoCUMIpn0VVfBv3L+UhpRSlGgDaAlDCHWO7LxSqPK/lIaUUpRoA2gJQwh1juy8Uqjyv5SGlFKUaANoCUMIRg+MdfgMF8CUhpRSlGgDaAlDCMnluwdKSyFAlIaUUpRoA2gJQwjI7oRohmMawJSGlFKUaANoCUMIjVNgiz5ZFcCUhpRSlGgDaAlDCBCxxcbvGvC/lIaUUpRoA2gJQwgvQPrpP6b2v5SGlFKUaANoCUMISnvsL8BK9L+UhpRSlGgDaAlDCBCh4bJR29K/lIaUUpRoA2gJQwgvQPrpP6b2v5SGlFKUaANoCUMISnvsL8BK9L+UhpRSlGgDaAlDCOON8lY3T/o/lIaUUpRoA2gJQwh1juy8Uqjyv5SGlFKUaANoCUMIYJBk9pGlDkCUhpRSlGgDaAlDCFoMteJ3LvE/lIaUUpRoA2gJQwg15GQtXvP6P5SGlFKUaANoCUMICEGIL4FK+T+UhpRSlGgDaAlDCMFFDIc5Gvk/lIaUUpRoA2gJQwg0Nb5UNMP5P5SGlFKUaANoCUMITd8SIS5x6j+UhpRSlGgDaAlDCE3fEiEuceo/lIaUUpRoA2gJQwij1ODCjMjmP5SGlFKUaANoCUMIE8TnR0qSE0CUhpRSlGgDaAlDCL0fHhb/6ek/lIaUUpRoA2gJQwi9Hx4W/+npP5SGlFKUaANoCUMIr6m+pTM++z+UhpRSlGgDaAlDCJJEK3FLJvk/lIaUUpRoA2gJQwg9GBHwSeD4P5SGlFKUaANoCUMIkkQrcUsm+T+UhpRSlGgDaAlDCK+pvqUzPvs/lIaUUpRoA2gJQwjuVACmm+sTQJSGlFKUaANoCUMID/GKAmTR7T+UhpRSlGgDaAlDCA/xigJk0e0/lIaUUpRoA2gJQwhCK9HBqY0MQJSGlFKUaANoCUMITt8SIS5x6j+UhpRSlGgDaAlDCE7fEiEuceo/lIaUUpRoA2gJQwg4h3N2w+nrP5SGlFKUaANoCUMIyZ4OiINR4T+UhpRSlGgDaAlDCMmeDoiDUeE/lIaUUpRoA2gJQwjJng6Ig1HhP5SGlFKUaANoCUMIyZ4OiINR4T+UhpRSlGgDaAlDCMmeDoiDUeE/lIaUUpRoA2gJQwjJng6Ig1HhP5SGlFKUaANoCUMI0erFzNgUDUCUhpRSlGgDaAlDCK2PaMS9R/w/lIaUUpRoA2gJQwiAmzKfCs/7P5SGlFKUaANoCUMIrY9oxL1H/D+UhpRSlGgDaAlDCICbMp8Kz/s/lIaUUpRoA2gJQwiqBtP2F6fjP5SGlFKUaANoCUMIqgbT9hen4z+UhpRSlGgDaAlDCKoG0/YXp+M/lIaUUpRoA2gJQwjJng6Ig1HhP5SGlFKUaANoCUMIyZ4OiINR4T+UhpRSlGgDaAlDCMmeDoiDUeE/lIaUUpRoA2gJQwhGN/Vf4uDwv5SGlFKUZS4=

$$$$
9
     RDKit          3D

 96100  0  0  1  0  0  0  0  0999 V2000
   14.3070   22.9110    5.6430 C   0  0  1  0  0  0  0  0  0  0  0  0
   14.5790   21.3770    5.3860 C   0  0  0  0  0  0  0  0  0  0  0  0
   13.6330   20.5620    5.4030 O   0  0  0  0  0  0  0  0  0  0  0  0
   15.8330   20.9260    5.1890 N   0  0  0  0  0  0  0  0  0  0  0  0
   16.1290   19.4960    4.9900 C   0  0  1  0  0  0  0  0  0  0  0  0
   16.0890   18.9950    3.5740 C   0  0  0  0  0  0  0  0  0  0  0  0
   15.2500   19.4110    2.4890 C   0  0  0  0  0  0  0  0  0  0  0  0
   15.4250   18.7590    1.2180 C   0  0  0  0  0  0  0  0  0  0  0  0
   16.4120   17.7250    1.0620 C   0  0  0  0  0  0  0  0  0  0  0  0
   17.2390   17.3220    2.1630 C   0  0  0  0  0  0  0  0  0  0  0  0
   17.0540   17.9780    3.4120 C   0  0  0  0  0  0  0  0  0  0  0  0
   17.7990   17.7320    4.7040 C   0  0  0  0  0  0  0  0  0  0  0  0
   17.5230   19.0220    5.5170 C   0  0  1  0  0  0  0  0  0  0  0  0
   18.5730   19.9140    5.1680 O   0  0  0  0  0  0  0  0  0  0  0  0
   14.1110   23.1820    7.1760 C   0  0  0  0  0  0  0  0  0  0  0  0
   14.9730   22.3470    8.1180 C   0  0  0  0  0  0  0  0  0  0  0  0
   14.3750   21.2800    8.8770 C   0  0  0  0  0  0  0  0  0  0  0  0
   15.1730   20.4770    9.7450 C   0  0  0  0  0  0  0  0  0  0  0  0
   16.5770   20.7350    9.8590 C   0  0  0  0  0  0  0  0  0  0  0  0
   17.1780   21.7980    9.1060 C   0  0  0  0  0  0  0  0  0  0  0  0
   16.3810   22.6040    8.2360 C   0  0  0  0  0  0  0  0  0  0  0  0
   15.4120   23.7170    5.2220 O   0  0  0  0  0  0  0  0  0  0  0  0
   13.0310   22.9480    4.7450 C   0  0  0  0  0  0  0  0  0  0  0  0
   12.0780   23.9550    4.3850 N   0  0  0  0  0  0  0  0  0  0  0  0
   11.4140   24.7110    5.3210 N   0  0  0  0  0  0  0  0  0  0  0  0
   11.5480   23.4280    3.1080 C   0  0  0  0  0  0  0  0  0  0  0  0
   10.5400   24.4360    6.3090 C   0  0  0  0  0  0  0  0  0  0  0  0
   10.3620   23.2950    6.7660 O   0  0  0  0  0  0  0  0  0  0  0  0
    9.7620   25.6600    6.8290 C   0  0  2  0  0  0  0  0  0  0  0  0
    9.6900   25.9050    8.3760 C   0  0  0  0  0  0  0  0  0  0  0  0
    8.9260   27.2100    8.7310 C   0  0  0  0  0  0  0  0  0  0  0  0
    8.9130   24.7670    9.0460 C   0  0  0  0  0  0  0  0  0  0  0  0
    8.3920   25.5860    6.2930 N   0  0  0  0  0  0  0  0  0  0  0  0
    7.8210   26.4840    5.4740 C   0  0  0  0  0  0  0  0  0  0  0  0
    8.4670   27.4840    5.1070 O   0  0  0  0  0  0  0  0  0  0  0  0
    6.5440   26.2540    5.0890 O   0  0  0  0  0  0  0  0  0  0  0  0
   10.0340   23.4700    2.9970 C   0  0  0  0  0  0  0  0  0  0  0  0
    9.4220   24.4510    2.1580 C   0  0  0  0  0  0  0  0  0  0  0  0
    7.9990   24.5180    2.0510 C   0  0  0  0  0  0  0  0  0  0  0  0
    7.1660   23.6030    2.7910 C   0  0  0  0  0  0  0  0  0  0  0  0
    9.2150   22.5500    3.7300 C   0  0  0  0  0  0  0  0  0  0  0  0
    7.7910   22.6170    3.6320 C   0  0  0  0  0  0  0  0  0  0  0  0
    5.8550   27.1580    4.2320 C   0  0  0  0  0  0  0  0  0  0  0  0
   11.0770   26.0020    9.0310 C   0  0  0  0  0  0  0  0  0  0  0  0
    3.4210   22.8550    3.3400 C   0  0  0  0  0  0  0  0  0  0  0  0
    4.8410   22.7860    3.4320 C   0  0  0  0  0  0  0  0  0  0  0  0
    5.6770   23.6820    2.6840 C   0  0  0  0  0  0  0  0  0  0  0  0
    5.0560   24.6540    1.8370 C   0  0  0  0  0  0  0  0  0  0  0  0
    3.6370   24.7180    1.7470 C   0  0  0  0  0  0  0  0  0  0  0  0
    2.8160   23.8240    2.4950 C   0  0  0  0  0  0  0  0  0  0  0  0
   16.6066   21.5751    5.1743 H   0  0  0  0  0  0  0  0  0  0  0  0
   15.3750   18.9372    5.5443 H   0  0  0  0  0  0  0  0  0  0  0  0
   14.5171   20.1896    2.6409 H   0  0  0  0  0  0  0  0  0  0  0  0
   14.8134   19.0457    0.3753 H   0  0  0  0  0  0  0  0  0  0  0  0
   16.5391   17.2396    0.1056 H   0  0  0  0  0  0  0  0  0  0  0  0
   17.9744   16.5425    2.0290 H   0  0  0  0  0  0  0  0  0  0  0  0
   18.8664   17.6599    4.4955 H   0  0  0  0  0  0  0  0  0  0  0  0
   17.3544   16.8804    5.2189 H   0  0  0  0  0  0  0  0  0  0  0  0
   17.5021   18.8251    6.5889 H   0  0  0  0  0  0  0  0  0  0  0  0
   18.3959   20.7798    5.5430 H   0  0  0  0  0  0  0  0  0  0  0  0
   13.0607   23.0457    7.4339 H   0  0  0  0  0  0  0  0  0  0  0  0
   14.2782   24.2399    7.3784 H   0  0  0  0  0  0  0  0  0  0  0  0
   13.3165   21.0836    8.7911 H   0  0  0  0  0  0  0  0  0  0  0  0
   14.7178   19.6787   10.3125 H   0  0  0  0  0  0  0  0  0  0  0  0
   17.1861   20.1287   10.5130 H   0  0  0  0  0  0  0  0  0  0  0  0
   18.2367   21.9916    9.1955 H   0  0  0  0  0  0  0  0  0  0  0  0
   16.8334   23.4038    7.6685 H   0  0  0  0  0  0  0  0  0  0  0  0
   15.2169   24.6417    5.3908 H   0  0  0  0  0  0  0  0  0  0  0  0
   12.4600   22.0496    4.9794 H   0  0  0  0  0  0  0  0  0  0  0  0
   13.2812   22.4150    3.8277 H   0  0  0  0  0  0  0  0  0  0  0  0
   11.7063   25.6636    5.1560 H   0  0  0  0  0  0  0  0  0  0  0  0
   11.8920   22.4030    2.9697 H   0  0  0  0  0  0  0  0  0  0  0  0
   11.9865   23.9827    2.2785 H   0  0  0  0  0  0  0  0  0  0  0  0
   10.2275   26.5421    6.3894 H   0  0  0  0  0  0  0  0  0  0  0  0
    8.9032   27.3353    9.8135 H   0  0  0  0  0  0  0  0  0  0  0  0
    9.4318   28.0625    8.2777 H   0  0  0  0  0  0  0  0  0  0  0  0
    7.9061   27.1493    8.3513 H   0  0  0  0  0  0  0  0  0  0  0  0
    8.8659   24.9421   10.1208 H   0  0  0  0  0  0  0  0  0  0  0  0
    7.9022   24.7283    8.6401 H   0  0  0  0  0  0  0  0  0  0  0  0
    9.4174   23.8199    8.8544 H   0  0  0  0  0  0  0  0  0  0  0  0
    7.8722   24.7735    6.5926 H   0  0  0  0  0  0  0  0  0  0  0  0
   10.0354   25.1448    1.6023 H   0  0  0  0  0  0  0  0  0  0  0  0
    7.5397   25.2579    1.4123 H   0  0  0  0  0  0  0  0  0  0  0  0
    9.6737   21.8021    4.3597 H   0  0  0  0  0  0  0  0  0  0  0  0
    7.1834   21.9226    4.1933 H   0  0  0  0  0  0  0  0  0  0  0  0
    4.8467   26.7874    4.0474 H   0  0  0  0  0  0  0  0  0  0  0  0
    5.8002   28.1382    4.7056 H   0  0  0  0  0  0  0  0  0  0  0  0
    6.3898   27.2416    3.2859 H   0  0  0  0  0  0  0  0  0  0  0  0
   10.9627   26.1719   10.1016 H   0  0  0  0  0  0  0  0  0  0  0  0
   11.6225   25.0726    8.8673 H   0  0  0  0  0  0  0  0  0  0  0  0
   11.6308   26.8304    8.5893 H   0  0  0  0  0  0  0  0  0  0  0  0
    2.8091   22.1725    3.9111 H   0  0  0  0  0  0  0  0  0  0  0  0
    5.3056   22.0508    4.0724 H   0  0  0  0  0  0  0  0  0  0  0  0
    5.6641   25.3396    1.2656 H   0  0  0  0  0  0  0  0  0  0  0  0
    1.7399   23.8804    2.4220 H   0  0  0  0  0  0  0  0  0  0  0  0
    3.1691   25.4505    1.1060 H   0  0  0  0  0  0  0  0  0  0  0  0
  1  2  1  0
  1 15  1  0
  1 22  1  6
  1 23  1  0
  2  3  2  0
  2  4  1  0
  4  5  1  0
  4 51  1  0
  5  6  1  0
  5 13  1  0
  5 52  1  1
  6  7  2  0
  6 11  1  0
  7  8  1  0
  7 53  1  0
  8  9  2  0
  8 54  1  0
  9 10  1  0
  9 55  1  0
 10 11  2  0
 10 56  1  0
 11 12  1  0
 12 13  1  0
 12 57  1  0
 12 58  1  0
 13 14  1  0
 13 59  1  1
 14 60  1  0
 15 16  1  0
 15 61  1  0
 15 62  1  0
 16 17  2  0
 16 21  1  0
 17 18  1  0
 17 63  1  0
 18 19  2  0
 18 64  1  0
 19 20  1  0
 19 65  1  0
 20 21  2  0
 20 66  1  0
 21 67  1  0
 22 68  1  0
 23 24  1  0
 23 69  1  0
 23 70  1  0
 24 25  1  0
 24 26  1  0
 25 27  1  0
 25 71  1  0
 26 37  1  0
 26 72  1  0
 26 73  1  0
 27 28  2  0
 27 29  1  0
 29 30  1  0
 29 33  1  0
 29 74  1  6
 30 31  1  0
 30 32  1  0
 30 44  1  0
 31 75  1  0
 31 76  1  0
 31 77  1  0
 32 78  1  0
 32 79  1  0
 32 80  1  0
 33 34  1  0
 33 81  1  0
 34 35  2  0
 34 36  1  0
 36 43  1  0
 37 38  2  0
 37 41  1  0
 38 39  1  0
 38 82  1  0
 39 40  2  0
 39 83  1  0
 40 42  1  0
 40 47  1  0
 41 42  2  0
 41 84  1  0
 42 85  1  0
 43 86  1  0
 43 87  1  0
 43 88  1  0
 44 89  1  0
 44 90  1  0
 44 91  1  0
 45 46  2  0
 45 50  1  0
 45 92  1  0
 46 47  1  0
 46 93  1  0
 47 48  2  0
 48 49  1  0
 48 94  1  0
 49 50  2  0
 49 96  1  0
 50 95  1  0
M  END
>  <i_m_Source_File_Index>  (2) 
2

>  <b_m_subgroup_collapsed>  (2) 
0

>  <r_exp_dg>  (2) 
-10.5033

>  <s_m_Source_File>  (2) 
hiv_prot_ekegren_ligands.sdf

>  <s_m_Source_Path>  (2) 
path\input_structures\original_structures\misc

>  <s_m_entry_id>  (2) 
12

>  <s_m_entry_name>  (2) 
hiv_prot_ekegren_ligands.2

>  <s_m_subgroup_title>  (2) 
misc->HIV1 protease->hiv_prot_ekegren_ligands

>  <s_m_subgroupid>  (2) 
misc->HIV1 protease->hiv_prot_ekegren_ligands

>  <experimental dG reference units>  (2) 
kcal/mol

>  <experimental dG reference field>  (2) 
r_exp_dg

>  <kJ/mol experimental dG>  (2) 
-43.9458072

>  <kcal/mol experimental dG>  (2) 
-10.5033

>  <AmberAM1BCCCache>  (2) 
gASVewcAAAAAAABdlCiMFm51bXB5Ll9jb3JlLm11bHRpYXJyYXmUjAZzY2FsYXKUk5SMBW51bXB5lIwFZHR5cGWUk5SMAmY4lImIh5RSlChLA4wBPJROTk5K/////0r/////SwB0lGJDCBcKHExgF/I/lIaUUpRoA2gJQwhofpbu0LMdQJSGlFKUaANoCUMI0A3WmsEHHcCUhpRSlGgDaAlDCDmDbfQKHRnAlIaUUpRoA2gJQwgGi8RohzP5P5SGlFKUaANoCUMIPMkO2J9y9L+UhpRSlGgDaAlDCBewKpQqY/K/lIaUUpRoA2gJQwhSAvcDdFH5v5SGlFKUaANoCUMIszhl8jsm97+UhpRSlGgDaAlDCLNFEON2ofa/lIaUUpRoA2gJQwhynN/qgEnuv5SGlFKUaANoCUMIVKL7vuT36b+UhpRSlGgDaAlDCLZbU2QRAfc/lIaUUpRoA2gJQwjBkrYZOhEcwJSGlFKUaANoCUMI5VP3m5Po3r+UhpRSlGgDaAlDCKqWIHEKXPG/lIaUUpRoA2gJQwgmKBfANs/3v5SGlFKUaANoCUMIe8uGLenz+L+UhpRSlGgDaAlDCA4h0TyiF/i/lIaUUpRoA2gJQwh7y4Yt6fP4v5SGlFKUaANoCUMIJigXwDbP97+UhpRSlGgDaAlDCINrtNMnWxzAlIaUUpRoA2gJQwhH+fDT8t33P5SGlFKUaANoCUMI6MJQIm4VF8CUhpRSlGgDaAlDCJ/SCIl5IxPAlIaUUpRoA2gJQwiiEERU18UBQJSGlFKUaANoCUMIhcrYThk4HUCUhpRSlGgDaAlDCPlhPiAr8xrAlIaUUpRoA2gJQwiY3e03DWzeP5SGlFKUaANoCUMIxlfBkIWw4L+UhpRSlGgDaAlDCDt6/CxToPK/lIaUUpRoA2gJQwg7evwsU6Dyv5SGlFKUaANoCUMIoYCqVM3wF8CUhpRSlGgDaAlDCM0R9ebKTCFAlIaUUpRoA2gJQwiu0pq7/k0bwJSGlFKUaANoCUMI/YtyR1fvFMCUhpRSlGgDaAlDCNdwALVH3vK/lIaUUpRoA2gJQwhQ/lHa5uz2v5SGlFKUaANoCUMIyj+rddDd9r+UhpRSlGgDaAlDCPmB9VeW/Ni/lIaUUpRoA2gJQwhQ/lHa5uz2v5SGlFKUaANoCUMIyj+rddDd9r+UhpRSlGgDaAlDCDomoKyMKPo/lIaUUpRoA2gJQwg7evwsU6Dyv5SGlFKUaANoCUMIwtOtxmuf+L+UhpRSlGgDaAlDCHSPkBfjPfa/lIaUUpRoA2gJQwhNAgkdJRTev5SGlFKUaANoCUMIdI+QF+M99r+UhpRSlGgDaAlDCMLTrcZrn/i/lIaUUpRoA2gJQwiPpya1P9X3v5SGlFKUaANoCUMIknI18mc5D0CUhpRSlGgDaAlDCPdw3FSMEvI/lIaUUpRoA2gJQwgQ4RBgA+D6P5SGlFKUaANoCUMI+w13n1oV+T+UhpRSlGgDaAlDCLYS+/YS5fg/lIaUUpRoA2gJQwgehV/74G/5P5SGlFKUaANoCUMIo/2pLE3U6D+UhpRSlGgDaAlDCKP9qSxN1Og/lIaUUpRoA2gJQwimFwAOw8rnP5SGlFKUaANoCUMITD+St4czE0CUhpRSlGgDaAlDCJuIprY6f+0/lIaUUpRoA2gJQwibiKa2On/tP5SGlFKUaANoCUMIg9DCLf6I+z+UhpRSlGgDaAlDCFkQOcs2/fg/lIaUUpRoA2gJQwhCFp443cD4P5SGlFKUaANoCUMIWRA5yzb9+D+UhpRSlGgDaAlDCIPQwi3+iPs/lIaUUpRoA2gJQwjTjLahH/ATQJSGlFKUaANoCUMIg4FgM6bH7T+UhpRSlGgDaAlDCIOBYDOmx+0/lIaUUpRoA2gJQwgo/CvEDEoMQJSGlFKUaANoCUMIUGuK2WKP6T+UhpRSlGgDaAlDCFBritlij+k/lIaUUpRoA2gJQwj4ijI2AgnxP5SGlFKUaANoCUMIN3TvNpEj4T+UhpRSlGgDaAlDCDd07zaRI+E/lIaUUpRoA2gJQwg3dO82kSPhP5SGlFKUaANoCUMIN3TvNpEj4T+UhpRSlGgDaAlDCDd07zaRI+E/lIaUUpRoA2gJQwg3dO82kSPhP5SGlFKUaANoCUMIXkau4DtvDkCUhpRSlGgDaAlDCCCWrxWpT/s/lIaUUpRoA2gJQwhX9uLpwAb6P5SGlFKUaANoCUMIIJavFalP+z+UhpRSlGgDaAlDCFf24unABvo/lIaUUpRoA2gJQwheCGLGMw3kP5SGlFKUaANoCUMIXghixjMN5D+UhpRSlGgDaAlDCF4IYsYzDeQ/lIaUUpRoA2gJQwg3dO82kSPhP5SGlFKUaANoCUMIN3TvNpEj4T+UhpRSlGgDaAlDCDd07zaRI+E/lIaUUpRoA2gJQwg70aFbKfT4P5SGlFKUaANoCUMIpEMGYPd++T+UhpRSlGgDaAlDCKRDBmD3fvk/lIaUUpRoA2gJQwi2Evv2EuX4P5SGlFKUaANoCUMIO9GhWyn0+D+UhpRSlGUu

$$$$
10
     RDKit          3D

 95 99  0  0  1  0  0  0  0  0999 V2000
   14.3070   22.9110    5.6430 C   0  0  1  0  0  0  0  0  0  0  0  0
   14.5790   21.3770    5.3860 C   0  0  0  0  0  0  0  0  0  0  0  0
   13.6330   20.5620    5.4030 O   0  0  0  0  0  0  0  0  0  0  0  0
   15.8330   20.9260    5.1890 N   0  0  0  0  0  0  0  0  0  0  0  0
   16.1290   19.4960    4.9900 C   0  0  1  0  0  0  0  0  0  0  0  0
   16.0890   18.9950    3.5740 C   0  0  0  0  0  0  0  0  0  0  0  0
   15.2500   19.4110    2.4890 C   0  0  0  0  0  0  0  0  0  0  0  0
   15.4250   18.7590    1.2180 C   0  0  0  0  0  0  0  0  0  0  0  0
   16.4120   17.7250    1.0620 C   0  0  0  0  0  0  0  0  0  0  0  0
   17.2390   17.3220    2.1630 C   0  0  0  0  0  0  0  0  0  0  0  0
   17.0540   17.9780    3.4120 C   0  0  0  0  0  0  0  0  0  0  0  0
   17.7990   17.7320    4.7040 C   0  0  0  0  0  0  0  0  0  0  0  0
   17.5230   19.0220    5.5170 C   0  0  1  0  0  0  0  0  0  0  0  0
   18.5730   19.9140    5.1680 O   0  0  0  0  0  0  0  0  0  0  0  0
   14.1110   23.1820    7.1760 C   0  0  0  0  0  0  0  0  0  0  0  0
   14.9730   22.3470    8.1180 C   0  0  0  0  0  0  0  0  0  0  0  0
   14.3750   21.2800    8.8770 C   0  0  0  0  0  0  0  0  0  0  0  0
   15.1730   20.4770    9.7450 C   0  0  0  0  0  0  0  0  0  0  0  0
   16.5770   20.7350    9.8590 C   0  0  0  0  0  0  0  0  0  0  0  0
   17.1780   21.7980    9.1060 C   0  0  0  0  0  0  0  0  0  0  0  0
   16.3810   22.6040    8.2360 C   0  0  0  0  0  0  0  0  0  0  0  0
   15.4120   23.7170    5.2220 O   0  0  0  0  0  0  0  0  0  0  0  0
   13.0310   22.9480    4.7450 C   0  0  0  0  0  0  0  0  0  0  0  0
   12.0780   23.9550    4.3850 N   0  0  0  0  0  0  0  0  0  0  0  0
   11.4140   24.7110    5.3210 N   0  0  0  0  0  0  0  0  0  0  0  0
   11.5480   23.4280    3.1080 C   0  0  0  0  0  0  0  0  0  0  0  0
   10.5400   24.4360    6.3090 C   0  0  0  0  0  0  0  0  0  0  0  0
   10.3620   23.2950    6.7660 O   0  0  0  0  0  0  0  0  0  0  0  0
    9.7620   25.6600    6.8290 C   0  0  2  0  0  0  0  0  0  0  0  0
    9.6900   25.9050    8.3760 C   0  0  0  0  0  0  0  0  0  0  0  0
    8.9260   27.2100    8.7310 C   0  0  0  0  0  0  0  0  0  0  0  0
   11.0770   26.0020    9.0310 C   0  0  0  0  0  0  0  0  0  0  0  0
    8.3920   25.5860    6.2930 N   0  0  0  0  0  0  0  0  0  0  0  0
    7.8210   26.4840    5.4740 C   0  0  0  0  0  0  0  0  0  0  0  0
    8.4670   27.4840    5.1070 O   0  0  0  0  0  0  0  0  0  0  0  0
    6.5440   26.2540    5.0890 O   0  0  0  0  0  0  0  0  0  0  0  0
   10.0340   23.4700    2.9970 C   0  0  0  0  0  0  0  0  0  0  0  0
    9.4220   24.4510    2.1580 C   0  0  0  0  0  0  0  0  0  0  0  0
    7.9990   24.5180    2.0510 C   0  0  0  0  0  0  0  0  0  0  0  0
    7.1660   23.6030    2.7910 C   0  0  0  0  0  0  0  0  0  0  0  0
    9.2150   22.5500    3.7300 C   0  0  0  0  0  0  0  0  0  0  0  0
    7.7910   22.6170    3.6320 C   0  0  0  0  0  0  0  0  0  0  0  0
    5.8550   27.1580    4.2320 C   0  0  0  0  0  0  0  0  0  0  0  0
    8.9130   24.7670    9.0460 C   0  0  0  0  0  0  0  0  0  0  0  0
    3.4210   22.8550    3.3400 C   0  0  0  0  0  0  0  0  0  0  0  0
    4.8410   22.7860    3.4320 C   0  0  0  0  0  0  0  0  0  0  0  0
    5.6770   23.6820    2.6840 C   0  0  0  0  0  0  0  0  0  0  0  0
    5.0560   24.6540    1.8370 N   0  0  0  0  0  0  0  0  0  0  0  0
    3.6370   24.7180    1.7470 C   0  0  0  0  0  0  0  0  0  0  0  0
    2.8160   23.8240    2.4950 C   0  0  0  0  0  0  0  0  0  0  0  0
   16.6066   21.5751    5.1743 H   0  0  0  0  0  0  0  0  0  0  0  0
   15.3750   18.9372    5.5443 H   0  0  0  0  0  0  0  0  0  0  0  0
   14.5171   20.1896    2.6409 H   0  0  0  0  0  0  0  0  0  0  0  0
   14.8134   19.0457    0.3753 H   0  0  0  0  0  0  0  0  0  0  0  0
   16.5391   17.2396    0.1056 H   0  0  0  0  0  0  0  0  0  0  0  0
   17.9744   16.5425    2.0290 H   0  0  0  0  0  0  0  0  0  0  0  0
   18.8664   17.6599    4.4955 H   0  0  0  0  0  0  0  0  0  0  0  0
   17.3544   16.8804    5.2189 H   0  0  0  0  0  0  0  0  0  0  0  0
   17.5021   18.8251    6.5889 H   0  0  0  0  0  0  0  0  0  0  0  0
   18.3959   20.7798    5.5430 H   0  0  0  0  0  0  0  0  0  0  0  0
   13.0607   23.0457    7.4339 H   0  0  0  0  0  0  0  0  0  0  0  0
   14.2782   24.2399    7.3784 H   0  0  0  0  0  0  0  0  0  0  0  0
   13.3165   21.0836    8.7911 H   0  0  0  0  0  0  0  0  0  0  0  0
   14.7178   19.6787   10.3125 H   0  0  0  0  0  0  0  0  0  0  0  0
   17.1861   20.1287   10.5130 H   0  0  0  0  0  0  0  0  0  0  0  0
   18.2367   21.9916    9.1955 H   0  0  0  0  0  0  0  0  0  0  0  0
   16.8334   23.4038    7.6685 H   0  0  0  0  0  0  0  0  0  0  0  0
   15.2169   24.6417    5.3908 H   0  0  0  0  0  0  0  0  0  0  0  0
   12.4600   22.0496    4.9794 H   0  0  0  0  0  0  0  0  0  0  0  0
   13.2812   22.4150    3.8277 H   0  0  0  0  0  0  0  0  0  0  0  0
   11.7063   25.6636    5.1560 H   0  0  0  0  0  0  0  0  0  0  0  0
   11.8920   22.4030    2.9697 H   0  0  0  0  0  0  0  0  0  0  0  0
   11.9865   23.9827    2.2785 H   0  0  0  0  0  0  0  0  0  0  0  0
   10.2275   26.5421    6.3894 H   0  0  0  0  0  0  0  0  0  0  0  0
    8.9032   27.3353    9.8135 H   0  0  0  0  0  0  0  0  0  0  0  0
    9.4318   28.0625    8.2777 H   0  0  0  0  0  0  0  0  0  0  0  0
    7.9061   27.1493    8.3513 H   0  0  0  0  0  0  0  0  0  0  0  0
   10.9627   26.1719   10.1016 H   0  0  0  0  0  0  0  0  0  0  0  0
   11.6225   25.0726    8.8673 H   0  0  0  0  0  0  0  0  0  0  0  0
   11.6308   26.8304    8.5893 H   0  0  0  0  0  0  0  0  0  0  0  0
    7.8722   24.7735    6.5926 H   0  0  0  0  0  0  0  0  0  0  0  0
   10.0354   25.1448    1.6023 H   0  0  0  0  0  0  0  0  0  0  0  0
    7.5397   25.2579    1.4123 H   0  0  0  0  0  0  0  0  0  0  0  0
    9.6737   21.8021    4.3597 H   0  0  0  0  0  0  0  0  0  0  0  0
    7.1834   21.9226    4.1933 H   0  0  0  0  0  0  0  0  0  0  0  0
    4.8467   26.7874    4.0474 H   0  0  0  0  0  0  0  0  0  0  0  0
    5.8002   28.1382    4.7056 H   0  0  0  0  0  0  0  0  0  0  0  0
    6.3898   27.2416    3.2859 H   0  0  0  0  0  0  0  0  0  0  0  0
    8.8659   24.9421   10.1208 H   0  0  0  0  0  0  0  0  0  0  0  0
    7.9022   24.7283    8.6401 H   0  0  0  0  0  0  0  0  0  0  0  0
    9.4174   23.8199    8.8544 H   0  0  0  0  0  0  0  0  0  0  0  0
    2.8091   22.1725    3.9111 H   0  0  0  0  0  0  0  0  0  0  0  0
    5.3056   22.0508    4.0724 H   0  0  0  0  0  0  0  0  0  0  0  0
    1.7399   23.8804    2.4220 H   0  0  0  0  0  0  0  0  0  0  0  0
    3.1691   25.4505    1.1060 H   0  0  0  0  0  0  0  0  0  0  0  0
  1  2  1  0
  1 15  1  0
  1 22  1  6
  1 23  1  0
  2  3  2  0
  2  4  1  0
  4  5  1  0
  4 51  1  0
  5  6  1  0
  5 13  1  0
  5 52  1  1
  6  7  2  0
  6 11  1  0
  7  8  1  0
  7 53  1  0
  8  9  2  0
  8 54  1  0
  9 10  1  0
  9 55  1  0
 10 11  2  0
 10 56  1  0
 11 12  1  0
 12 13  1  0
 12 57  1  0
 12 58  1  0
 13 14  1  0
 13 59  1  1
 14 60  1  0
 15 16  1  0
 15 61  1  0
 15 62  1  0
 16 17  2  0
 16 21  1  0
 17 18  1  0
 17 63  1  0
 18 19  2  0
 18 64  1  0
 19 20  1  0
 19 65  1  0
 20 21  2  0
 20 66  1  0
 21 67  1  0
 22 68  1  0
 23 24  1  0
 23 69  1  0
 23 70  1  0
 24 25  1  0
 24 26  1  0
 25 27  1  0
 25 71  1  0
 26 37  1  0
 26 72  1  0
 26 73  1  0
 27 28  2  0
 27 29  1  0
 29 30  1  0
 29 33  1  0
 29 74  1  6
 30 31  1  0
 30 32  1  0
 30 44  1  0
 31 75  1  0
 31 76  1  0
 31 77  1  0
 32 78  1  0
 32 79  1  0
 32 80  1  0
 33 34  1  0
 33 81  1  0
 34 35  2  0
 34 36  1  0
 36 43  1  0
 37 38  2  0
 37 41  1  0
 38 39  1  0
 38 82  1  0
 39 40  2  0
 39 83  1  0
 40 42  1  0
 40 47  1  0
 41 42  2  0
 41 84  1  0
 42 85  1  0
 43 86  1  0
 43 87  1  0
 43 88  1  0
 44 89  1  0
 44 90  1  0
 44 91  1  0
 45 46  2  0
 45 50  1  0
 45 92  1  0
 46 47  1  0
 46 93  1  0
 47 48  2  0
 48 49  1  0
 49 50  2  0
 49 95  1  0
 50 94  1  0
M  END
>  <i_m_Source_File_Index>  (3) 
3

>  <b_m_subgroup_collapsed>  (3) 
0

>  <r_exp_dg>  (3) 
-10.806

>  <s_m_Source_File>  (3) 
hiv_prot_ekegren_ligands.sdf

>  <s_m_Source_Path>  (3) 
path\input_structures\original_structures\misc

>  <s_m_entry_id>  (3) 
13

>  <s_m_entry_name>  (3) 
hiv_prot_ekegren_ligands.3

>  <s_m_subgroup_title>  (3) 
misc->HIV1 protease->hiv_prot_ekegren_ligands

>  <s_m_subgroupid>  (3) 
misc->HIV1 protease->hiv_prot_ekegren_ligands

>  <experimental dG reference units>  (3) 
kcal/mol

>  <experimental dG reference field>  (3) 
r_exp_dg

>  <kJ/mol experimental dG>  (3) 
-45.212303999999996

>  <kcal/mol experimental dG>  (3) 
-10.806

>  <AmberAM1BCCCache>  (3) 
gASVaAcAAAAAAABdlCiMFm51bXB5Ll9jb3JlLm11bHRpYXJyYXmUjAZzY2FsYXKUk5SMBW51bXB5lIwFZHR5cGWUk5SMAmY4lImIh5RSlChLA4wBPJROTk5K/////0r/////SwB0lGJDCPokzL4lsPE/lIaUUpRoA2gJQwg7QF8b98sdQJSGlFKUaANoCUMI4dKt7TKpHMCUhpRSlGgDaAlDCHxcHoIENxnAlIaUUpRoA2gJQwgnsBKZsWP4P5SGlFKUaANoCUMI4ra3WK6C9L+UhpRSlGgDaAlDCIQfpTUeYfK/lIaUUpRoA2gJQwgyc4QVp0D5v5SGlFKUaANoCUMIGqWgBghD97+UhpRSlGgDaAlDCOm1IJNel/a/lIaUUpRoA2gJQwgebUgnP9buv5SGlFKUaANoCUMIOKZ6r5p56L+UhpRSlGgDaAlDCNJeVnSUjPc/lIaUUpRoA2gJQwjpLNA3JiIcwJSGlFKUaANoCUMIKwa4JT0f1b+UhpRSlGgDaAlDCND9c3l7rvG/lIaUUpRoA2gJQwiQrqi1eOL2v5SGlFKUaANoCUMIj3VGQYMo+b+UhpRSlGgDaAlDCHiNDFFuNPi/lIaUUpRoA2gJQwiPdUZBgyj5v5SGlFKUaANoCUMIkK6otXji9r+UhpRSlGgDaAlDCE8oZY0WURzAlIaUUpRoA2gJQwg8cGtYg+X4P5SGlFKUaANoCUMIjeh1agGxFsCUhpRSlGgDaAlDCIqUiKEa5RLAlIaUUpRoA2gJQwimloH7bYj/P5SGlFKUaANoCUMIgWeSR/k6HECUhpRSlGgDaAlDCOb0+A3aTRvAlIaUUpRoA2gJQwihAMbEbbPfP5SGlFKUaANoCUMI3614UwbF3r+UhpRSlGgDaAlDCCjZWwDuh/K/lIaUUpRoA2gJQwgo2VsA7ofyv5SGlFKUaANoCUMIbYzDToNNF8CUhpRSlGgDaAlDCELmKrS9NCFAlIaUUpRoA2gJQwg2E5S6tB0bwJSGlFKUaANoCUMI4MY4M7j4FMCUhpRSlGgDaAlDCB8EJO4bbvG/lIaUUpRoA2gJQwi0l6oO08v3v5SGlFKUaANoCUMIzfZemdwA9L+UhpRSlGgDaAlDCEZGHtZPC/u/lIaUUpRoA2gJQwi0l6oO08v3v5SGlFKUaANoCUMIzfZemdwA9L+UhpRSlGgDaAlDCBy4H84vHfo/lIaUUpRoA2gJQwgo2VsA7ofyv5SGlFKUaANoCUMIezN9/ESV8b+UhpRSlGgDaAlDCEus9paeWAbAlIaUUpRoA2gJQwihWcuQ66IVQJSGlFKUaANoCUMIULAKlI8PH8CUhpRSlGgDaAlDCOs7cCfAvBJAlIaUUpRoA2gJQwhjlDCHs0wHwJSGlFKUaANoCUMIkH56O4sUD0CUhpRSlGgDaAlDCKp9AMEoPPI/lIaUUpRoA2gJQwh5bj6EPwL7P5SGlFKUaANoCUMIxZ1m73If+T+UhpRSlGgDaAlDCAWjTvvN6fg/lIaUUpRoA2gJQwholu4RjWr5P5SGlFKUaANoCUMICRfyBIYn6T+UhpRSlGgDaAlDCAkX8gSGJ+k/lIaUUpRoA2gJQwiHSjoTzxnnP5SGlFKUaANoCUMIOGIMjnJAE0CUhpRSlGgDaAlDCEjJIbt1Qew/lIaUUpRoA2gJQwhIySG7dUHsP5SGlFKUaANoCUMISWVoLyBg+z+UhpRSlGgDaAlDCLShVDg39/g/lIaUUpRoA2gJQwiTruZ7yXP4P5SGlFKUaANoCUMItKFUODf3+D+UhpRSlGgDaAlDCEllaC8gYPs/lIaUUpRoA2gJQwhQXKcgzHwTQJSGlFKUaANoCUMIcI5hz0aa7j+UhpRSlGgDaAlDCHCOYc9Gmu4/lIaUUpRoA2gJQwiMp/IxHnINQJSGlFKUaANoCUMIJw8Wc/136T+UhpRSlGgDaAlDCCcPFnP9d+k/lIaUUpRoA2gJQwgecxErOrHvP5SGlFKUaANoCUMIplW1+B9E4T+UhpRSlGgDaAlDCKZVtfgfROE/lIaUUpRoA2gJQwimVbX4H0ThP5SGlFKUaANoCUMIplW1+B9E4T+UhpRSlGgDaAlDCKZVtfgfROE/lIaUUpRoA2gJQwimVbX4H0ThP5SGlFKUaANoCUMIn5mYhUYADkCUhpRSlGgDaAlDCH5k0iAsaPs/lIaUUpRoA2gJQwhGah7hKS37P5SGlFKUaANoCUMIfmTSICxo+z+UhpRSlGgDaAlDCEZqHuEpLfs/lIaUUpRoA2gJQwhwm2KXr9/jP5SGlFKUaANoCUMIcJtil6/f4z+UhpRSlGgDaAlDCHCbYpev3+M/lIaUUpRoA2gJQwimVbX4H0ThP5SGlFKUaANoCUMIplW1+B9E4T+UhpRSlGgDaAlDCKZVtfgfROE/lIaUUpRoA2gJQwgFhEJoTib6P5SGlFKUaANoCUMIS2CyfRaT+z+UhpRSlGgDaAlDCNlrSv4RHfs/lIaUUpRoA2gJQwjyDAGSSOrQP5SGlFKUZS4=

$$$$
11 (2cen)
     RDKit          3D

 95 99  0  0  1  0  0  0  0  0999 V2000
   14.3070   22.9110    5.6430 C   0  0  1  0  0  0  0  0  0  0  0  0
   14.5790   21.3770    5.3860 C   0  0  0  0  0  0  0  0  0  0  0  0
   13.6330   20.5620    5.4030 O   0  0  0  0  0  0  0  0  0  0  0  0
   15.8330   20.9260    5.1890 N   0  0  0  0  0  0  0  0  0  0  0  0
   16.1290   19.4960    4.9900 C   0  0  1  0  0  0  0  0  0  0  0  0
   16.0890   18.9950    3.5740 C   0  0  0  0  0  0  0  0  0  0  0  0
   15.2500   19.4110    2.4890 C   0  0  0  0  0  0  0  0  0  0  0  0
   15.4250   18.7590    1.2180 C   0  0  0  0  0  0  0  0  0  0  0  0
   16.4120   17.7250    1.0620 C   0  0  0  0  0  0  0  0  0  0  0  0
   17.2390   17.3220    2.1630 C   0  0  0  0  0  0  0  0  0  0  0  0
   17.0540   17.9780    3.4120 C   0  0  0  0  0  0  0  0  0  0  0  0
   17.7990   17.7320    4.7040 C   0  0  0  0  0  0  0  0  0  0  0  0
   17.5230   19.0220    5.5170 C   0  0  1  0  0  0  0  0  0  0  0  0
   18.5730   19.9140    5.1680 O   0  0  0  0  0  0  0  0  0  0  0  0
   14.1110   23.1820    7.1760 C   0  0  0  0  0  0  0  0  0  0  0  0
   14.9730   22.3470    8.1180 C   0  0  0  0  0  0  0  0  0  0  0  0
   14.3750   21.2800    8.8770 C   0  0  0  0  0  0  0  0  0  0  0  0
   15.1730   20.4770    9.7450 C   0  0  0  0  0  0  0  0  0  0  0  0
   16.5770   20.7350    9.8590 C   0  0  0  0  0  0  0  0  0  0  0  0
   17.1780   21.7980    9.1060 C   0  0  0  0  0  0  0  0  0  0  0  0
   16.3810   22.6040    8.2360 C   0  0  0  0  0  0  0  0  0  0  0  0
   15.4120   23.7170    5.2220 O   0  0  0  0  0  0  0  0  0  0  0  0
   13.0310   22.9480    4.7450 C   0  0  0  0  0  0  0  0  0  0  0  0
   12.0780   23.9550    4.3850 N   0  0  0  0  0  0  0  0  0  0  0  0
   11.4140   24.7110    5.3210 N   0  0  0  0  0  0  0  0  0  0  0  0
   11.5480   23.4280    3.1080 C   0  0  0  0  0  0  0  0  0  0  0  0
   10.5400   24.4360    6.3090 C   0  0  0  0  0  0  0  0  0  0  0  0
   10.3620   23.2950    6.7660 O   0  0  0  0  0  0  0  0  0  0  0  0
    9.7620   25.6600    6.8290 C   0  0  2  0  0  0  0  0  0  0  0  0
    9.6900   25.9050    8.3760 C   0  0  0  0  0  0  0  0  0  0  0  0
    8.9260   27.2100    8.7310 C   0  0  0  0  0  0  0  0  0  0  0  0
   11.0770   26.0020    9.0310 C   0  0  0  0  0  0  0  0  0  0  0  0
    8.3920   25.5860    6.2930 N   0  0  0  0  0  0  0  0  0  0  0  0
    7.8210   26.4840    5.4740 C   0  0  0  0  0  0  0  0  0  0  0  0
    8.4670   27.4840    5.1070 O   0  0  0  0  0  0  0  0  0  0  0  0
    6.5440   26.2540    5.0890 O   0  0  0  0  0  0  0  0  0  0  0  0
   10.0340   23.4700    2.9970 C   0  0  0  0  0  0  0  0  0  0  0  0
    9.4220   24.4510    2.1580 C   0  0  0  0  0  0  0  0  0  0  0  0
    7.9990   24.5180    2.0510 C   0  0  0  0  0  0  0  0  0  0  0  0
    7.1660   23.6030    2.7910 C   0  0  0  0  0  0  0  0  0  0  0  0
    9.2150   22.5500    3.7300 C   0  0  0  0  0  0  0  0  0  0  0  0
    7.7910   22.6170    3.6320 C   0  0  0  0  0  0  0  0  0  0  0  0
    5.8550   27.1580    4.2320 C   0  0  0  0  0  0  0  0  0  0  0  0
    8.9130   24.7670    9.0460 C   0  0  0  0  0  0  0  0  0  0  0  0
    3.4210   22.8550    3.3400 C   0  0  0  0  0  0  0  0  0  0  0  0
    4.8410   22.7860    3.4320 C   0  0  0  0  0  0  0  0  0  0  0  0
    5.6770   23.6820    2.6840 C   0  0  0  0  0  0  0  0  0  0  0  0
    5.0560   24.6540    1.8370 C   0  0  0  0  0  0  0  0  0  0  0  0
    3.6370   24.7180    1.7470 N   0  0  0  0  0  0  0  0  0  0  0  0
    2.8160   23.8240    2.4950 C   0  0  0  0  0  0  0  0  0  0  0  0
   16.6066   21.5751    5.1743 H   0  0  0  0  0  0  0  0  0  0  0  0
   15.3750   18.9372    5.5443 H   0  0  0  0  0  0  0  0  0  0  0  0
   14.5171   20.1896    2.6409 H   0  0  0  0  0  0  0  0  0  0  0  0
   14.8134   19.0457    0.3753 H   0  0  0  0  0  0  0  0  0  0  0  0
   16.5391   17.2396    0.1056 H   0  0  0  0  0  0  0  0  0  0  0  0
   17.9744   16.5425    2.0290 H   0  0  0  0  0  0  0  0  0  0  0  0
   18.8664   17.6599    4.4955 H   0  0  0  0  0  0  0  0  0  0  0  0
   17.3544   16.8804    5.2189 H   0  0  0  0  0  0  0  0  0  0  0  0
   17.5021   18.8251    6.5889 H   0  0  0  0  0  0  0  0  0  0  0  0
   18.3959   20.7798    5.5430 H   0  0  0  0  0  0  0  0  0  0  0  0
   13.0607   23.0457    7.4339 H   0  0  0  0  0  0  0  0  0  0  0  0
   14.2782   24.2399    7.3784 H   0  0  0  0  0  0  0  0  0  0  0  0
   13.3165   21.0836    8.7911 H   0  0  0  0  0  0  0  0  0  0  0  0
   14.7178   19.6787   10.3125 H   0  0  0  0  0  0  0  0  0  0  0  0
   17.1861   20.1287   10.5130 H   0  0  0  0  0  0  0  0  0  0  0  0
   18.2367   21.9916    9.1955 H   0  0  0  0  0  0  0  0  0  0  0  0
   16.8334   23.4038    7.6685 H   0  0  0  0  0  0  0  0  0  0  0  0
   15.2169   24.6417    5.3908 H   0  0  0  0  0  0  0  0  0  0  0  0
   12.4600   22.0496    4.9794 H   0  0  0  0  0  0  0  0  0  0  0  0
   13.2812   22.4150    3.8277 H   0  0  0  0  0  0  0  0  0  0  0  0
   11.7063   25.6636    5.1560 H   0  0  0  0  0  0  0  0  0  0  0  0
   11.8920   22.4030    2.9697 H   0  0  0  0  0  0  0  0  0  0  0  0
   11.9865   23.9827    2.2785 H   0  0  0  0  0  0  0  0  0  0  0  0
   10.2275   26.5421    6.3894 H   0  0  0  0  0  0  0  0  0  0  0  0
    8.9032   27.3353    9.8135 H   0  0  0  0  0  0  0  0  0  0  0  0
    9.4318   28.0625    8.2777 H   0  0  0  0  0  0  0  0  0  0  0  0
    7.9061   27.1493    8.3513 H   0  0  0  0  0  0  0  0  0  0  0  0
   10.9627   26.1719   10.1016 H   0  0  0  0  0  0  0  0  0  0  0  0
   11.6225   25.0726    8.8673 H   0  0  0  0  0  0  0  0  0  0  0  0
   11.6308   26.8304    8.5893 H   0  0  0  0  0  0  0  0  0  0  0  0
    7.8722   24.7735    6.5926 H   0  0  0  0  0  0  0  0  0  0  0  0
   10.0354   25.1448    1.6023 H   0  0  0  0  0  0  0  0  0  0  0  0
    7.5397   25.2579    1.4123 H   0  0  0  0  0  0  0  0  0  0  0  0
    9.6737   21.8021    4.3597 H   0  0  0  0  0  0  0  0  0  0  0  0
    7.1834   21.9226    4.1933 H   0  0  0  0  0  0  0  0  0  0  0  0
    4.8467   26.7874    4.0474 H   0  0  0  0  0  0  0  0  0  0  0  0
    5.8002   28.1382    4.7056 H   0  0  0  0  0  0  0  0  0  0  0  0
    6.3898   27.2416    3.2859 H   0  0  0  0  0  0  0  0  0  0  0  0
    8.8659   24.9421   10.1208 H   0  0  0  0  0  0  0  0  0  0  0  0
    7.9022   24.7283    8.6401 H   0  0  0  0  0  0  0  0  0  0  0  0
    9.4174   23.8199    8.8544 H   0  0  0  0  0  0  0  0  0  0  0  0
    2.8091   22.1725    3.9111 H   0  0  0  0  0  0  0  0  0  0  0  0
    5.3056   22.0508    4.0724 H   0  0  0  0  0  0  0  0  0  0  0  0
    5.6641   25.3396    1.2656 H   0  0  0  0  0  0  0  0  0  0  0  0
    1.7399   23.8804    2.4220 H   0  0  0  0  0  0  0  0  0  0  0  0
  1  2  1  0
  1 15  1  0
  1 22  1  6
  1 23  1  0
  2  3  2  0
  2  4  1  0
  4  5  1  0
  4 51  1  0
  5  6  1  0
  5 13  1  0
  5 52  1  1
  6  7  2  0
  6 11  1  0
  7  8  1  0
  7 53  1  0
  8  9  2  0
  8 54  1  0
  9 10  1  0
  9 55  1  0
 10 11  2  0
 10 56  1  0
 11 12  1  0
 12 13  1  0
 12 57  1  0
 12 58  1  0
 13 14  1  0
 13 59  1  1
 14 60  1  0
 15 16  1  0
 15 61  1  0
 15 62  1  0
 16 17  2  0
 16 21  1  0
 17 18  1  0
 17 63  1  0
 18 19  2  0
 18 64  1  0
 19 20  1  0
 19 65  1  0
 20 21  2  0
 20 66  1  0
 21 67  1  0
 22 68  1  0
 23 24  1  0
 23 69  1  0
 23 70  1  0
 24 25  1  0
 24 26  1  0
 25 27  1  0
 25 71  1  0
 26 37  1  0
 26 72  1  0
 26 73  1  0
 27 28  2  0
 27 29  1  0
 29 30  1  0
 29 33  1  0
 29 74  1  6
 30 31  1  0
 30 32  1  0
 30 44  1  0
 31 75  1  0
 31 76  1  0
 31 77  1  0
 32 78  1  0
 32 79  1  0
 32 80  1  0
 33 34  1  0
 33 81  1  0
 34 35  2  0
 34 36  1  0
 36 43  1  0
 37 38  2  0
 37 41  1  0
 38 39  1  0
 38 82  1  0
 39 40  2  0
 39 83  1  0
 40 42  1  0
 40 47  1  0
 41 42  2  0
 41 84  1  0
 42 85  1  0
 43 86  1  0
 43 87  1  0
 43 88  1  0
 44 89  1  0
 44 90  1  0
 44 91  1  0
 45 46  2  0
 45 50  1  0
 45 92  1  0
 46 47  1  0
 46 93  1  0
 47 48  2  0
 48 49  1  0
 48 94  1  0
 49 50  2  0
 50 95  1  0
M  END
>  <i_m_Source_File_Index>  (4) 
4

>  <b_m_subgroup_collapsed>  (4) 
0

>  <r_exp_dg>  (4) 
-11.3247

>  <s_m_Source_File>  (4) 
hiv_prot_ekegren_ligands.sdf

>  <s_m_Source_Path>  (4) 
path\input_structures\original_structures\misc

>  <s_m_entry_id>  (4) 
14

>  <s_m_entry_name>  (4) 
hiv_prot_ekegren_ligands.4

>  <s_m_subgroup_title>  (4) 
misc->HIV1 protease->hiv_prot_ekegren_ligands

>  <s_m_subgroupid>  (4) 
misc->HIV1 protease->hiv_prot_ekegren_ligands

>  <experimental dG reference units>  (4) 
kcal/mol

>  <experimental dG reference field>  (4) 
r_exp_dg

>  <kJ/mol experimental dG>  (4) 
-47.382544800000005

>  <kcal/mol experimental dG>  (4) 
-11.3247

>  <AmberAM1BCCCache>  (4) 
gASVaAcAAAAAAABdlCiMFm51bXB5Ll9jb3JlLm11bHRpYXJyYXmUjAZzY2FsYXKUk5SMBW51bXB5lIwFZHR5cGWUk5SMAmY4lImIh5RSlChLA4wBPJROTk5K/////0r/////SwB0lGJDCIJFnytnM/M/lIaUUpRoA2gJQwjwZVkChYEdQJSGlFKUaANoCUMI6w6lsB4jHcCUhpRSlGgDaAlDCCVWh7CWRhnAlIaUUpRoA2gJQwiTyjZIrhr4P5SGlFKUaANoCUMIHPT/Qm9i9b+UhpRSlGgDaAlDCE82OAyEvvK/lIaUUpRoA2gJQwgwXOr6y2b5v5SGlFKUaANoCUMIJGyj1Ti59r+UhpRSlGgDaAlDCGHVJQpBnPa/lIaUUpRoA2gJQwgs2CJGZx3tv5SGlFKUaANoCUMI9UGon4La5r+UhpRSlGgDaAlDCFCYt1kGEfg/lIaUUpRoA2gJQwhDjBhZ9jgcwJSGlFKUaANoCUMIqKb1Eknx2b+UhpRSlGgDaAlDCM/rjxCqofG/lIaUUpRoA2gJQwgT91bG4073v5SGlFKUaANoCUMITywtOABF+b+UhpRSlGgDaAlDCEe0iaU27ve/lIaUUpRoA2gJQwhPLC04AEX5v5SGlFKUaANoCUMIE/dWxuNO97+UhpRSlGgDaAlDCHR4TcTR/RvAlIaUUpRoA2gJQwimtybqzNv4P5SGlFKUaANoCUMIV5i/eauiFsCUhpRSlGgDaAlDCEEjKtETIxPAlIaUUpRoA2gJQwiohNNNYO0AQJSGlFKUaANoCUMI2JrA+7NqHECUhpRSlGgDaAlDCOH8BvA9yxrAlIaUUpRoA2gJQwiIrxD/VYbgP5SGlFKUaANoCUMIjxqqpfJ83b+UhpRSlGgDaAlDCJnJfvaksfK/lIaUUpRoA2gJQwiZyX72pLHyv5SGlFKUaANoCUMION0o54nzFsCUhpRSlGgDaAlDCG6zLmmFSSFAlIaUUpRoA2gJQwg2bc+n2mUawJSGlFKUaANoCUMIIR870fNXFcCUhpRSlGgDaAlDCK9SUBnWnPG/lIaUUpRoA2gJQwj7QGpqJWf2v5SGlFKUaANoCUMI9WrCv0rF9r+UhpRSlGgDaAlDCI7wCLeKCdm/lIaUUpRoA2gJQwj7QGpqJWf2v5SGlFKUaANoCUMI9WrCv0rF9r+UhpRSlGgDaAlDCHDGR0iOT/o/lIaUUpRoA2gJQwiZyX72pLHyv5SGlFKUaANoCUMIGlu2CIUoB8CUhpRSlGgDaAlDCDjIaWv6yu+/lIaUUpRoA2gJQwjOCyYrjpv8v5SGlFKUaANoCUMI8DgY92UME0CUhpRSlGgDaAlDCAPA59V5Qx/AlIaUUpRoA2gJQwjCROLRspMSQJSGlFKUaANoCUMIpFZnxOIDD0CUhpRSlGgDaAlDCP9LUFdj5vA/lIaUUpRoA2gJQwjYWgPoqYT6P5SGlFKUaANoCUMIc+CdKQRG+T+UhpRSlGgDaAlDCC/lIYG8Ffk/lIaUUpRoA2gJQwii1NNOt775P5SGlFKUaANoCUMId8UJEzHc6T+UhpRSlGgDaAlDCHfFCRMx3Ok/lIaUUpRoA2gJQwh+Ewy3kr/mP5SGlFKUaANoCUMIHS1OHBmFE0CUhpRSlGgDaAlDCAcaTxUUnew/lIaUUpRoA2gJQwgHGk8VFJ3sP5SGlFKUaANoCUMInqAnjMvR+z+UhpRSlGgDaAlDCEy1ZL7w8/g/lIaUUpRoA2gJQwiEVeo4WbD4P5SGlFKUaANoCUMITLVkvvDz+D+UhpRSlGgDaAlDCJ6gJ4zL0fs/lIaUUpRoA2gJQwjqYnBMi2oTQJSGlFKUaANoCUMIx+fPJmyT7D+UhpRSlGgDaAlDCMfnzyZsk+w/lIaUUpRoA2gJQwg6LVstE5UMQJSGlFKUaANoCUMI9w+yDgv56j+UhpRSlGgDaAlDCPcPsg4L+eo/lIaUUpRoA2gJQwiUKp1HGfTrP5SGlFKUaANoCUMIrwf+MaJY4T+UhpRSlGgDaAlDCK8H/jGiWOE/lIaUUpRoA2gJQwivB/4xoljhP5SGlFKUaANoCUMIrwf+MaJY4T+UhpRSlGgDaAlDCK8H/jGiWOE/lIaUUpRoA2gJQwivB/4xoljhP5SGlFKUaANoCUMIlyJyaLQBDUCUhpRSlGgDaAlDCLPrG0b73fo/lIaUUpRoA2gJQwgFoJI0M835P5SGlFKUaANoCUMIs+sbRvvd+j+UhpRSlGgDaAlDCAWgkjQzzfk/lIaUUpRoA2gJQwgtwBMrkaTjP5SGlFKUaANoCUMILcATK5Gk4z+UhpRSlGgDaAlDCC3AEyuRpOM/lIaUUpRoA2gJQwivB/4xoljhP5SGlFKUaANoCUMIrwf+MaJY4T+UhpRSlGgDaAlDCK8H/jGiWOE/lIaUUpRoA2gJQwjNrrOS9ED7P5SGlFKUaANoCUMI/Lw/mR2w+j+UhpRSlGgDaAlDCHhYTG2lBNM/lIaUUpRoA2gJQwjIGW5MGG/RP5SGlFKUZS4=

$$$$
12
     RDKit          3D

 95 99  0  0  1  0  0  0  0  0999 V2000
   14.3070   22.9110    5.6430 C   0  0  1  0  0  0  0  0  0  0  0  0
   14.5790   21.3770    5.3860 C   0  0  0  0  0  0  0  0  0  0  0  0
   13.6330   20.5620    5.4030 O   0  0  0  0  0  0  0  0  0  0  0  0
   15.8330   20.9260    5.1890 N   0  0  0  0  0  0  0  0  0  0  0  0
   16.1290   19.4960    4.9900 C   0  0  1  0  0  0  0  0  0  0  0  0
   16.0890   18.9950    3.5740 C   0  0  0  0  0  0  0  0  0  0  0  0
   15.2500   19.4110    2.4890 C   0  0  0  0  0  0  0  0  0  0  0  0
   15.4250   18.7590    1.2180 C   0  0  0  0  0  0  0  0  0  0  0  0
   16.4120   17.7250    1.0620 C   0  0  0  0  0  0  0  0  0  0  0  0
   17.2390   17.3220    2.1630 C   0  0  0  0  0  0  0  0  0  0  0  0
   17.0540   17.9780    3.4120 C   0  0  0  0  0  0  0  0  0  0  0  0
   17.7990   17.7320    4.7040 C   0  0  0  0  0  0  0  0  0  0  0  0
   17.5230   19.0220    5.5170 C   0  0  1  0  0  0  0  0  0  0  0  0
   18.5730   19.9140    5.1680 O   0  0  0  0  0  0  0  0  0  0  0  0
   14.1110   23.1820    7.1760 C   0  0  0  0  0  0  0  0  0  0  0  0
   14.9730   22.3470    8.1180 C   0  0  0  0  0  0  0  0  0  0  0  0
   14.3750   21.2800    8.8770 C   0  0  0  0  0  0  0  0  0  0  0  0
   15.1730   20.4770    9.7450 C   0  0  0  0  0  0  0  0  0  0  0  0
   16.5770   20.7350    9.8590 C   0  0  0  0  0  0  0  0  0  0  0  0
   17.1780   21.7980    9.1060 C   0  0  0  0  0  0  0  0  0  0  0  0
   16.3810   22.6040    8.2360 C   0  0  0  0  0  0  0  0  0  0  0  0
   15.4120   23.7170    5.2220 O   0  0  0  0  0  0  0  0  0  0  0  0
   13.0310   22.9480    4.7450 C   0  0  0  0  0  0  0  0  0  0  0  0
   12.0780   23.9550    4.3850 N   0  0  0  0  0  0  0  0  0  0  0  0
   11.4140   24.7110    5.3210 N   0  0  0  0  0  0  0  0  0  0  0  0
   11.5480   23.4280    3.1080 C   0  0  0  0  0  0  0  0  0  0  0  0
   10.5400   24.4360    6.3090 C   0  0  0  0  0  0  0  0  0  0  0  0
   10.3620   23.2950    6.7660 O   0  0  0  0  0  0  0  0  0  0  0  0
    9.7620   25.6600    6.8290 C   0  0  2  0  0  0  0  0  0  0  0  0
    9.6900   25.9050    8.3760 C   0  0  0  0  0  0  0  0  0  0  0  0
    8.9260   27.2100    8.7310 C   0  0  0  0  0  0  0  0  0  0  0  0
    8.9130   24.7670    9.0460 C   0  0  0  0  0  0  0  0  0  0  0  0
    8.3920   25.5860    6.2930 N   0  0  0  0  0  0  0  0  0  0  0  0
    7.8210   26.4840    5.4740 C   0  0  0  0  0  0  0  0  0  0  0  0
    8.4670   27.4840    5.1070 O   0  0  0  0  0  0  0  0  0  0  0  0
    6.5440   26.2540    5.0890 O   0  0  0  0  0  0  0  0  0  0  0  0
   10.0340   23.4700    2.9970 C   0  0  0  0  0  0  0  0  0  0  0  0
    9.4220   24.4510    2.1580 C   0  0  0  0  0  0  0  0  0  0  0  0
    7.9990   24.5180    2.0510 C   0  0  0  0  0  0  0  0  0  0  0  0
    7.1660   23.6030    2.7910 C   0  0  0  0  0  0  0  0  0  0  0  0
    9.2150   22.5500    3.7300 C   0  0  0  0  0  0  0  0  0  0  0  0
    7.7910   22.6170    3.6320 C   0  0  0  0  0  0  0  0  0  0  0  0
    5.8550   27.1580    4.2320 C   0  0  0  0  0  0  0  0  0  0  0  0
   11.0770   26.0020    9.0310 C   0  0  0  0  0  0  0  0  0  0  0  0
    3.4210   22.8550    3.3400 C   0  0  0  0  0  0  0  0  0  0  0  0
    4.8410   22.7860    3.4320 C   0  0  0  0  0  0  0  0  0  0  0  0
    5.6770   23.6820    2.6840 C   0  0  0  0  0  0  0  0  0  0  0  0
    5.0560   24.6540    1.8370 C   0  0  0  0  0  0  0  0  0  0  0  0
    3.6370   24.7180    1.7470 C   0  0  0  0  0  0  0  0  0  0  0  0
    2.8160   23.8240    2.4950 N   0  0  0  0  0  0  0  0  0  0  0  0
   16.6066   21.5751    5.1743 H   0  0  0  0  0  0  0  0  0  0  0  0
   15.3750   18.9372    5.5443 H   0  0  0  0  0  0  0  0  0  0  0  0
   14.5171   20.1896    2.6409 H   0  0  0  0  0  0  0  0  0  0  0  0
   14.8134   19.0457    0.3753 H   0  0  0  0  0  0  0  0  0  0  0  0
   16.5391   17.2396    0.1056 H   0  0  0  0  0  0  0  0  0  0  0  0
   17.9744   16.5425    2.0290 H   0  0  0  0  0  0  0  0  0  0  0  0
   18.8664   17.6599    4.4955 H   0  0  0  0  0  0  0  0  0  0  0  0
   17.3544   16.8804    5.2189 H   0  0  0  0  0  0  0  0  0  0  0  0
   17.5021   18.8251    6.5889 H   0  0  0  0  0  0  0  0  0  0  0  0
   18.3959   20.7798    5.5430 H   0  0  0  0  0  0  0  0  0  0  0  0
   13.0607   23.0457    7.4339 H   0  0  0  0  0  0  0  0  0  0  0  0
   14.2782   24.2399    7.3784 H   0  0  0  0  0  0  0  0  0  0  0  0
   13.3165   21.0836    8.7911 H   0  0  0  0  0  0  0  0  0  0  0  0
   14.7178   19.6787   10.3125 H   0  0  0  0  0  0  0  0  0  0  0  0
   17.1861   20.1287   10.5130 H   0  0  0  0  0  0  0  0  0  0  0  0
   18.2367   21.9916    9.1955 H   0  0  0  0  0  0  0  0  0  0  0  0
   16.8334   23.4038    7.6685 H   0  0  0  0  0  0  0  0  0  0  0  0
   15.2169   24.6417    5.3908 H   0  0  0  0  0  0  0  0  0  0  0  0
   12.4600   22.0496    4.9794 H   0  0  0  0  0  0  0  0  0  0  0  0
   13.2812   22.4150    3.8277 H   0  0  0  0  0  0  0  0  0  0  0  0
   11.7063   25.6636    5.1560 H   0  0  0  0  0  0  0  0  0  0  0  0
   11.8920   22.4030    2.9697 H   0  0  0  0  0  0  0  0  0  0  0  0
   11.9865   23.9827    2.2785 H   0  0  0  0  0  0  0  0  0  0  0  0
   10.2275   26.5421    6.3894 H   0  0  0  0  0  0  0  0  0  0  0  0
    8.9032   27.3353    9.8135 H   0  0  0  0  0  0  0  0  0  0  0  0
    9.4318   28.0625    8.2777 H   0  0  0  0  0  0  0  0  0  0  0  0
    7.9061   27.1493    8.3513 H   0  0  0  0  0  0  0  0  0  0  0  0
    8.8659   24.9421   10.1208 H   0  0  0  0  0  0  0  0  0  0  0  0
    7.9022   24.7283    8.6401 H   0  0  0  0  0  0  0  0  0  0  0  0
    9.4174   23.8199    8.8544 H   0  0  0  0  0  0  0  0  0  0  0  0
    7.8722   24.7735    6.5926 H   0  0  0  0  0  0  0  0  0  0  0  0
   10.0354   25.1448    1.6023 H   0  0  0  0  0  0  0  0  0  0  0  0
    7.5397   25.2579    1.4123 H   0  0  0  0  0  0  0  0  0  0  0  0
    9.6737   21.8021    4.3597 H   0  0  0  0  0  0  0  0  0  0  0  0
    7.1834   21.9226    4.1933 H   0  0  0  0  0  0  0  0  0  0  0  0
    4.8467   26.7874    4.0474 H   0  0  0  0  0  0  0  0  0  0  0  0
    5.8002   28.1382    4.7056 H   0  0  0  0  0  0  0  0  0  0  0  0
    6.3898   27.2416    3.2859 H   0  0  0  0  0  0  0  0  0  0  0  0
   10.9627   26.1719   10.1016 H   0  0  0  0  0  0  0  0  0  0  0  0
   11.6225   25.0726    8.8673 H   0  0  0  0  0  0  0  0  0  0  0  0
   11.6308   26.8304    8.5893 H   0  0  0  0  0  0  0  0  0  0  0  0
    2.8091   22.1725    3.9111 H   0  0  0  0  0  0  0  0  0  0  0  0
    5.3056   22.0508    4.0724 H   0  0  0  0  0  0  0  0  0  0  0  0
    5.6641   25.3396    1.2656 H   0  0  0  0  0  0  0  0  0  0  0  0
    3.1691   25.4505    1.1060 H   0  0  0  0  0  0  0  0  0  0  0  0
  1  2  1  0
  1 15  1  0
  1 22  1  6
  1 23  1  0
  2  3  2  0
  2  4  1  0
  4  5  1  0
  4 51  1  0
  5  6  1  0
  5 13  1  0
  5 52  1  1
  6  7  2  0
  6 11  1  0
  7  8  1  0
  7 53  1  0
  8  9  2  0
  8 54  1  0
  9 10  1  0
  9 55  1  0
 10 11  2  0
 10 56  1  0
 11 12  1  0
 12 13  1  0
 12 57  1  0
 12 58  1  0
 13 14  1  0
 13 59  1  1
 14 60  1  0
 15 16  1  0
 15 61  1  0
 15 62  1  0
 16 17  2  0
 16 21  1  0
 17 18  1  0
 17 63  1  0
 18 19  2  0
 18 64  1  0
 19 20  1  0
 19 65  1  0
 20 21  2  0
 20 66  1  0
 21 67  1  0
 22 68  1  0
 23 24  1  0
 23 69  1  0
 23 70  1  0
 24 25  1  0
 24 26  1  0
 25 27  1  0
 25 71  1  0
 26 37  1  0
 26 72  1  0
 26 73  1  0
 27 28  2  0
 27 29  1  0
 29 30  1  0
 29 33  1  0
 29 74  1  6
 30 31  1  0
 30 32  1  0
 30 44  1  0
 31 75  1  0
 31 76  1  0
 31 77  1  0
 32 78  1  0
 32 79  1  0
 32 80  1  0
 33 34  1  0
 33 81  1  0
 34 35  2  0
 34 36  1  0
 36 43  1  0
 37 38  2  0
 37 41  1  0
 38 39  1  0
 38 82  1  0
 39 40  2  0
 39 83  1  0
 40 42  1  0
 40 47  1  0
 41 42  2  0
 41 84  1  0
 42 85  1  0
 43 86  1  0
 43 87  1  0
 43 88  1  0
 44 89  1  0
 44 90  1  0
 44 91  1  0
 45 46  2  0
 45 50  1  0
 45 92  1  0
 46 47  1  0
 46 93  1  0
 47 48  2  0
 48 49  1  0
 48 94  1  0
 49 50  2  0
 49 95  1  0
M  END
>  <i_m_Source_File_Index>  (5) 
5

>  <b_m_subgroup_collapsed>  (5) 
0

>  <r_exp_dg>  (5) 
-11.2682

>  <s_m_Source_File>  (5) 
hiv_prot_ekegren_ligands.sdf

>  <s_m_Source_Path>  (5) 
path\input_structures\original_structures\misc

>  <s_m_entry_id>  (5) 
15

>  <s_m_entry_name>  (5) 
hiv_prot_ekegren_ligands.5

>  <s_m_subgroup_title>  (5) 
misc->HIV1 protease->hiv_prot_ekegren_ligands

>  <s_m_subgroupid>  (5) 
misc->HIV1 protease->hiv_prot_ekegren_ligands

>  <experimental dG reference units>  (5) 
kcal/mol

>  <experimental dG reference field>  (5) 
r_exp_dg

>  <kJ/mol experimental dG>  (5) 
-47.146148800000006

>  <kcal/mol experimental dG>  (5) 
-11.2682

>  <AmberAM1BCCCache>  (5) 
gASVaAcAAAAAAABdlCiMFm51bXB5Ll9jb3JlLm11bHRpYXJyYXmUjAZzY2FsYXKUk5SMBW51bXB5lIwFZHR5cGWUk5SMAmY4lImIh5RSlChLA4wBPJROTk5K/////0r/////SwB0lGJDCOyBHVWtDPM/lIaUUpRoA2gJQwhHUZDQo98dQJSGlFKUaANoCUMIGYhsv0/YHMCUhpRSlGgDaAlDCE7Co86MgBnAlIaUUpRoA2gJQwhpmBmOmzz2P5SGlFKUaANoCUMIMFODPNl19b+UhpRSlGgDaAlDCNiew7RecfK/lIaUUpRoA2gJQwhdwrN3yjH5v5SGlFKUaANoCUMIw8EeIDIt97+UhpRSlGgDaAlDCA2g7WOPeva/lIaUUpRoA2gJQwi0pzYMNwzwv5SGlFKUaANoCUMI15mD4cIK6b+UhpRSlGgDaAlDCL6dMj3sEPg/lIaUUpRoA2gJQwjptY016gkcwJSGlFKUaANoCUMIu4XUAf1u3L+UhpRSlGgDaAlDCHIKCBVDPPK/lIaUUpRoA2gJQwjau7myi2n3v5SGlFKUaANoCUMI3yayVBpF+b+UhpRSlGgDaAlDCPG1VEXlpfe/lIaUUpRoA2gJQwjfJrJUGkX5v5SGlFKUaANoCUMI2ru5sotp97+UhpRSlGgDaAlDCPzmKw6kHxzAlIaUUpRoA2gJQwj6mwVpqC36P5SGlFKUaANoCUMIQtJcqfnSFsCUhpRSlGgDaAlDCAyv2157HxPAlIaUUpRoA2gJQwg73s9kQrT/P5SGlFKUaANoCUMI5sF+Z+txHECUhpRSlGgDaAlDCGw04vOvExvAlIaUUpRoA2gJQwgA1fH+L4HhP5SGlFKUaANoCUMI7Six/9kX3r+UhpRSlGgDaAlDCC302ENVjvK/lIaUUpRoA2gJQwgt9NhDVY7yv5SGlFKUaANoCUMIu3VfhoFzF8CUhpRSlGgDaAlDCI+hprHeQiFAlIaUUpRoA2gJQwj9ItmKZ8AawJSGlFKUaANoCUMIOXwQsn0mFcCUhpRSlGgDaAlDCFlUG7mEVPG/lIaUUpRoA2gJQwju+QJ8gPr2v5SGlFKUaANoCUMIl+c+3PSq9b+UhpRSlGgDaAlDCCxlsJS57uC/lIaUUpRoA2gJQwju+QJ8gPr2v5SGlFKUaANoCUMIl+c+3PSq9b+UhpRSlGgDaAlDCDzOhFdQN/o/lIaUUpRoA2gJQwgt9NhDVY7yv5SGlFKUaANoCUMIkZPJ1giNEkCUhpRSlGgDaAlDCL0eaXkJZQbAlIaUUpRoA2gJQwi/Ou96zQiXP5SGlFKUaANoCUMIvR5peQllBsCUhpRSlGgDaAlDCJGTydYIjRJAlIaUUpRoA2gJQwj0mClqQjwfwJSGlFKUaANoCUMIVRAo/DXdDkCUhpRSlGgDaAlDCPz2aWQCd/I/lIaUUpRoA2gJQwgWUvLEZhX7P5SGlFKUaANoCUMIgBpaJ243+T+UhpRSlGgDaAlDCPnsXpB+/fg/lIaUUpRoA2gJQwjK3tKJVY75P5SGlFKUaANoCUMIMjfA4ijX6T+UhpRSlGgDaAlDCDI3wOIo1+k/lIaUUpRoA2gJQwhJuQB8+9HsP5SGlFKUaANoCUMI4I+TJWk1E0CUhpRSlGgDaAlDCKqEv2F34Ow/lIaUUpRoA2gJQwiqhL9hd+DsP5SGlFKUaANoCUMIJK3o8kWJ+z+UhpRSlGgDaAlDCAwe/Wg4E/k/lIaUUpRoA2gJQwgVvaHNstv4P5SGlFKUaANoCUMIDB79aDgT+T+UhpRSlGgDaAlDCCSt6PJFifs/lIaUUpRoA2gJQwh57iyVEoUTQJSGlFKUaANoCUMI+RE1fv5d7T+UhpRSlGgDaAlDCPkRNX7+Xe0/lIaUUpRoA2gJQwga21GKGecMQJSGlFKUaANoCUMI/UXhQOpK6z+UhpRSlGgDaAlDCP1F4UDqSus/lIaUUpRoA2gJQwh1k+C/OFTuP5SGlFKUaANoCUMId/+kaFE54T+UhpRSlGgDaAlDCHf/pGhROeE/lIaUUpRoA2gJQwh3/6RoUTnhP5SGlFKUaANoCUMId/+kaFE54T+UhpRSlGgDaAlDCHf/pGhROeE/lIaUUpRoA2gJQwh3/6RoUTnhP5SGlFKUaANoCUMIBZBd0OnaDUCUhpRSlGgDaAlDCLWGM9/qBvs/lIaUUpRoA2gJQwhqz2VtPiv6P5SGlFKUaANoCUMItYYz3+oG+z+UhpRSlGgDaAlDCGrPZW0+K/o/lIaUUpRoA2gJQwjLYYe9VMHjP5SGlFKUaANoCUMIy2GHvVTB4z+UhpRSlGgDaAlDCMthh71UweM/lIaUUpRoA2gJQwh3/6RoUTnhP5SGlFKUaANoCUMId/+kaFE54T+UhpRSlGgDaAlDCHf/pGhROeE/lIaUUpRoA2gJQwi8mNwOuFHRP5SGlFKUaANoCUMI4XppBJ5/+z+UhpRSlGgDaAlDCOF6aQSef/s/lIaUUpRoA2gJQwi8mNwOuFHRP5SGlFKUZS4=

$$$$
13
     RDKit          3D

100104  0  0  1  0  0  0  0  0999 V2000
   14.3070   22.9110    5.6430 C   0  0  1  0  0  0  0  0  0  0  0  0
   14.5790   21.3770    5.3860 C   0  0  0  0  0  0  0  0  0  0  0  0
   13.6330   20.5620    5.4030 O   0  0  0  0  0  0  0  0  0  0  0  0
   15.8330   20.9260    5.1890 N   0  0  0  0  0  0  0  0  0  0  0  0
   16.1290   19.4960    4.9900 C   0  0  1  0  0  0  0  0  0  0  0  0
   16.0890   18.9950    3.5740 C   0  0  0  0  0  0  0  0  0  0  0  0
   15.2500   19.4110    2.4890 C   0  0  0  0  0  0  0  0  0  0  0  0
   15.4250   18.7590    1.2180 C   0  0  0  0  0  0  0  0  0  0  0  0
   16.4120   17.7250    1.0620 C   0  0  0  0  0  0  0  0  0  0  0  0
   17.2390   17.3220    2.1630 C   0  0  0  0  0  0  0  0  0  0  0  0
   17.0540   17.9780    3.4120 C   0  0  0  0  0  0  0  0  0  0  0  0
   17.7990   17.7320    4.7040 C   0  0  0  0  0  0  0  0  0  0  0  0
   17.5230   19.0220    5.5170 C   0  0  1  0  0  0  0  0  0  0  0  0
   18.5730   19.9140    5.1680 O   0  0  0  0  0  0  0  0  0  0  0  0
   14.1110   23.1820    7.1760 C   0  0  0  0  0  0  0  0  0  0  0  0
   14.9730   22.3470    8.1180 C   0  0  0  0  0  0  0  0  0  0  0  0
   16.3810   22.6040    8.2360 C   0  0  0  0  0  0  0  0  0  0  0  0
   17.1780   21.7980    9.1060 C   0  0  0  0  0  0  0  0  0  0  0  0
   16.5770   20.7350    9.8590 C   0  0  0  0  0  0  0  0  0  0  0  0
   15.1730   20.4770    9.7450 C   0  0  0  0  0  0  0  0  0  0  0  0
   14.3750   21.2800    8.8770 C   0  0  0  0  0  0  0  0  0  0  0  0
   15.4120   23.7170    5.2220 O   0  0  0  0  0  0  0  0  0  0  0  0
   13.0310   22.9480    4.7450 C   0  0  0  0  0  0  0  0  0  0  0  0
   12.0780   23.9550    4.3850 N   0  0  0  0  0  0  0  0  0  0  0  0
   11.4140   24.7110    5.3210 N   0  0  0  0  0  0  0  0  0  0  0  0
   11.5480   23.4280    3.1080 C   0  0  0  0  0  0  0  0  0  0  0  0
   10.5400   24.4360    6.3090 C   0  0  0  0  0  0  0  0  0  0  0  0
   10.3620   23.2950    6.7660 O   0  0  0  0  0  0  0  0  0  0  0  0
    9.7620   25.6600    6.8290 C   0  0  2  0  0  0  0  0  0  0  0  0
    9.6900   25.9050    8.3760 C   0  0  0  0  0  0  0  0  0  0  0  0
    8.9260   27.2100    8.7310 C   0  0  0  0  0  0  0  0  0  0  0  0
   11.0770   26.0020    9.0310 C   0  0  0  0  0  0  0  0  0  0  0  0
    8.3920   25.5860    6.2930 N   0  0  0  0  0  0  0  0  0  0  0  0
    7.8210   26.4840    5.4740 C   0  0  0  0  0  0  0  0  0  0  0  0
    8.4670   27.4840    5.1070 O   0  0  0  0  0  0  0  0  0  0  0  0
    6.5440   26.2540    5.0890 O   0  0  0  0  0  0  0  0  0  0  0  0
   10.0340   23.4700    2.9970 C   0  0  0  0  0  0  0  0  0  0  0  0
    9.4220   24.4510    2.1580 C   0  0  0  0  0  0  0  0  0  0  0  0
    7.9990   24.5180    2.0510 C   0  0  0  0  0  0  0  0  0  0  0  0
    7.1660   23.6030    2.7910 C   0  0  0  0  0  0  0  0  0  0  0  0
    9.2150   22.5500    3.7300 C   0  0  0  0  0  0  0  0  0  0  0  0
    7.7910   22.6170    3.6320 C   0  0  0  0  0  0  0  0  0  0  0  0
    5.8550   27.1580    4.2320 C   0  0  0  0  0  0  0  0  0  0  0  0
    8.9130   24.7670    9.0460 C   0  0  0  0  0  0  0  0  0  0  0  0
    5.6714   23.6760    2.6869 C   0  0  0  0  0  0  0  0  0  0  0  0
    4.8974   23.6077    3.7794 C   0  0  0  0  0  0  0  0  0  0  0  0
    3.4028   23.6808    3.6753 C   0  0  0  0  0  0  0  0  0  0  0  0
    2.6119   22.7922    4.3941 C   0  0  0  0  0  0  0  0  0  0  0  0
    1.2270   22.8599    4.2976 C   0  0  0  0  0  0  0  0  0  0  0  0
    0.6331   23.8161    3.4824 C   0  0  0  0  0  0  0  0  0  0  0  0
    1.4240   24.7046    2.7636 C   0  0  0  0  0  0  0  0  0  0  0  0
    2.8088   24.6369    2.8601 C   0  0  0  0  0  0  0  0  0  0  0  0
   16.5979   21.5858    5.1833 H   0  0  0  0  0  0  0  0  0  0  0  0
   15.3915   18.8969    5.5286 H   0  0  0  0  0  0  0  0  0  0  0  0
   14.5100   20.1857    2.6257 H   0  0  0  0  0  0  0  0  0  0  0  0
   14.8092   19.0479    0.3789 H   0  0  0  0  0  0  0  0  0  0  0  0
   16.5314   17.2446    0.1020 H   0  0  0  0  0  0  0  0  0  0  0  0
   17.9801   16.5453    2.0439 H   0  0  0  0  0  0  0  0  0  0  0  0
   17.3571   16.8637    5.1942 H   0  0  0  0  0  0  0  0  0  0  0  0
   18.8574   17.5297    4.5375 H   0  0  0  0  0  0  0  0  0  0  0  0
   17.5332   18.8603    6.5960 H   0  0  0  0  0  0  0  0  0  0  0  0
   18.3959   20.7798    5.5430 H   0  0  0  0  0  0  0  0  0  0  0  0
   14.2553   24.2376    7.4047 H   0  0  0  0  0  0  0  0  0  0  0  0
   13.0681   22.9796    7.4239 H   0  0  0  0  0  0  0  0  0  0  0  0
   16.8400   23.3958    7.6612 H   0  0  0  0  0  0  0  0  0  0  0  0
   18.2377   21.9885    9.1927 H   0  0  0  0  0  0  0  0  0  0  0  0
   17.1842   20.1289   10.5153 H   0  0  0  0  0  0  0  0  0  0  0  0
   14.7179   19.6763   10.3095 H   0  0  0  0  0  0  0  0  0  0  0  0
   13.3178   21.0730    8.7836 H   0  0  0  0  0  0  0  0  0  0  0  0
   15.2169   24.6417    5.3908 H   0  0  0  0  0  0  0  0  0  0  0  0
   13.4596   22.5947    3.7992 H   0  0  0  0  0  0  0  0  0  0  0  0
   12.3081   22.2208    5.1202 H   0  0  0  0  0  0  0  0  0  0  0  0
   11.4049   25.6942    5.0924 H   0  0  0  0  0  0  0  0  0  0  0  0
   11.9978   23.9842    2.2844 H   0  0  0  0  0  0  0  0  0  0  0  0
   11.7708   22.3732    2.9239 H   0  0  0  0  0  0  0  0  0  0  0  0
   10.2659   26.5389    6.4227 H   0  0  0  0  0  0  0  0  0  0  0  0
    9.4318   28.0625    8.2777 H   0  0  0  0  0  0  0  0  0  0  0  0
    7.9061   27.1493    8.3513 H   0  0  0  0  0  0  0  0  0  0  0  0
    8.9032   27.3353    9.8135 H   0  0  0  0  0  0  0  0  0  0  0  0
   10.9627   26.1719   10.1016 H   0  0  0  0  0  0  0  0  0  0  0  0
   11.6225   25.0726    8.8673 H   0  0  0  0  0  0  0  0  0  0  0  0
   11.6308   26.8304    8.5893 H   0  0  0  0  0  0  0  0  0  0  0  0
    7.8597   24.7517    6.4845 H   0  0  0  0  0  0  0  0  0  0  0  0
   10.0318   25.1503    1.6047 H   0  0  0  0  0  0  0  0  0  0  0  0
    7.5441   25.2635    1.4154 H   0  0  0  0  0  0  0  0  0  0  0  0
    9.6763   21.8172    4.3781 H   0  0  0  0  0  0  0  0  0  0  0  0
    7.1848   21.9238    4.1967 H   0  0  0  0  0  0  0  0  0  0  0  0
    4.8467   26.7874    4.0474 H   0  0  0  0  0  0  0  0  0  0  0  0
    5.8002   28.1382    4.7056 H   0  0  0  0  0  0  0  0  0  0  0  0
    6.3898   27.2416    3.2859 H   0  0  0  0  0  0  0  0  0  0  0  0
    7.9022   24.7283    8.6401 H   0  0  0  0  0  0  0  0  0  0  0  0
    9.4174   23.8199    8.8544 H   0  0  0  0  0  0  0  0  0  0  0  0
    8.8659   24.9421   10.1208 H   0  0  0  0  0  0  0  0  0  0  0  0
    5.2390   23.7855    1.7030 H   0  0  0  0  0  0  0  0  0  0  0  0
    5.3297   23.4983    4.7633 H   0  0  0  0  0  0  0  0  0  0  0  0
    3.0743   22.0478    5.0288 H   0  0  0  0  0  0  0  0  0  0  0  0
    0.6113   22.1682    4.8572 H   0  0  0  0  0  0  0  0  0  0  0  0
   -0.4450   23.8688    3.4073 H   0  0  0  0  0  0  0  0  0  0  0  0
    0.9616   25.4491    2.1289 H   0  0  0  0  0  0  0  0  0  0  0  0
    3.4246   25.3287    2.3005 H   0  0  0  0  0  0  0  0  0  0  0  0
  1  2  1  0
  1 15  1  0
  1 22  1  6
  1 23  1  0
  2  3  2  0
  2  4  1  0
  4  5  1  0
  4 53  1  0
  5  6  1  0
  5 13  1  0
  5 54  1  1
  6  7  2  0
  6 11  1  0
  7  8  1  0
  7 55  1  0
  8  9  2  0
  8 56  1  0
  9 10  1  0
  9 57  1  0
 10 11  2  0
 10 58  1  0
 11 12  1  0
 12 13  1  0
 12 59  1  0
 12 60  1  0
 13 14  1  0
 13 61  1  1
 14 62  1  0
 15 16  1  0
 15 63  1  0
 15 64  1  0
 16 17  2  0
 16 21  1  0
 17 18  1  0
 17 65  1  0
 18 19  2  0
 18 66  1  0
 19 20  1  0
 19 67  1  0
 20 21  2  0
 20 68  1  0
 21 69  1  0
 22 70  1  0
 23 24  1  0
 23 71  1  0
 23 72  1  0
 24 25  1  0
 24 26  1  0
 25 27  1  0
 25 73  1  0
 26 37  1  0
 26 74  1  0
 26 75  1  0
 27 28  2  0
 27 29  1  0
 29 30  1  0
 29 33  1  0
 29 76  1  6
 30 31  1  0
 30 32  1  0
 30 44  1  0
 31 77  1  0
 31 78  1  0
 31 79  1  0
 32 80  1  0
 32 81  1  0
 32 82  1  0
 33 34  1  0
 33 83  1  0
 34 35  2  0
 34 36  1  0
 36 43  1  0
 37 38  2  0
 37 41  1  0
 38 39  1  0
 38 84  1  0
 39 40  2  0
 39 85  1  0
 40 42  1  0
 40 45  1  0
 41 42  2  0
 41 86  1  0
 42 87  1  0
 43 88  1  0
 43 89  1  0
 43 90  1  0
 44 91  1  0
 44 92  1  0
 44 93  1  0
 45 46  2  0
 45 94  1  0
 46 47  1  0
 46 95  1  0
 47 52  1  0
 47 48  2  0
 48 49  1  0
 48 96  1  0
 49 50  2  0
 49 97  1  0
 50 51  1  0
 50 98  1  0
 51 52  2  0
 51 99  1  0
 52100  1  0
M  END
>  <i_m_Source_File_Index>  (6) 
6

>  <b_m_subgroup_collapsed>  (6) 
0

>  <r_exp_dg>  (6) 
-10.8575

>  <s_m_Source_File>  (6) 
hiv_prot_ekegren_ligands.sdf

>  <s_m_Source_Path>  (6) 
path\input_structures\original_structures\misc

>  <s_m_entry_id>  (6) 
16

>  <s_m_entry_name>  (6) 
hiv_prot_ekegren_ligands.6

>  <s_m_subgroup_title>  (6) 
misc->HIV1 protease->hiv_prot_ekegren_ligands

>  <s_m_subgroupid>  (6) 
misc->HIV1 protease->hiv_prot_ekegren_ligands

>  <experimental dG reference units>  (6) 
kcal/mol

>  <experimental dG reference field>  (6) 
r_exp_dg

>  <kJ/mol experimental dG>  (6) 
-45.42778

>  <kcal/mol experimental dG>  (6) 
-10.8575

>  <AmberAM1BCCCache>  (6) 
gASVxwcAAAAAAABdlCiMFm51bXB5Ll9jb3JlLm11bHRpYXJyYXmUjAZzY2FsYXKUk5SMBW51bXB5lIwFZHR5cGWUk5SMAmY4lImIh5RSlChLA4wBPJROTk5K/////0r/////SwB0lGJDCL5D5ijzx/E/lIaUUpRoA2gJQwik/jyfzDAeQJSGlFKUaANoCUMIIJHSK5BmHMCUhpRSlGgDaAlDCErSvE6MShnAlIaUUpRoA2gJQwgHk6SuCt/6P5SGlFKUaANoCUMIlpzv60c99L+UhpRSlGgDaAlDCMQIgAqC9/G/lIaUUpRoA2gJQwhxV6k4AQr5v5SGlFKUaANoCUMIo3+LIKBv97+UhpRSlGgDaAlDCEeXH9Y5fva/lIaUUpRoA2gJQwivEpiRr83vv5SGlFKUaANoCUMIwCZAbDzr6r+UhpRSlGgDaAlDCF2IclBpNvc/lIaUUpRoA2gJQwj+neqs9WUcwJSGlFKUaANoCUMIuQkB1czd4b+UhpRSlGgDaAlDCGvcZYmAsfG/lIaUUpRoA2gJQwi5eSaz+av3v5SGlFKUaANoCUMIwtwdm7DT+L+UhpRSlGgDaAlDCOh6B8nnn/e/lIaUUpRoA2gJQwjC3B2bsNP4v5SGlFKUaANoCUMIuXkms/mr97+UhpRSlGgDaAlDCEjeYjLxYhzAlIaUUpRoA2gJQwiZeZqL6tf5P5SGlFKUaANoCUMIIKPeueuTFsCUhpRSlGgDaAlDCJl+6empcBPAlIaUUpRoA2gJQwiPTkUnK0wAQJSGlFKUaANoCUMIPJmDizkhHUCUhpRSlGgDaAlDCGNuU8nUOxvAlIaUUpRoA2gJQwgZo3pGToDeP5SGlFKUaANoCUMI4ClssALB3r+UhpRSlGgDaAlDCHLJSfQ5lfK/lIaUUpRoA2gJQwhyyUn0OZXyv5SGlFKUaANoCUMILILVxLZhF8CUhpRSlGgDaAlDCEVqzTkKNiFAlIaUUpRoA2gJQwj+SOxbkjEbwJSGlFKUaANoCUMIDT+ZKxz0FMCUhpRSlGgDaAlDCJnQm64zKvK/lIaUUpRoA2gJQwg7DScc0uT2v5SGlFKUaANoCUMIUgfCrish97+UhpRSlGgDaAlDCCAzDWycTOS/lIaUUpRoA2gJQwg7DScc0uT2v5SGlFKUaANoCUMIUgfCrish97+UhpRSlGgDaAlDCJDa9SZwD/o/lIaUUpRoA2gJQwhyyUn0OZXyv5SGlFKUaANoCUMI0wVyIFAg9L+UhpRSlGgDaAlDCHcdBtbpLvO/lIaUUpRoA2gJQwhMDe2v2c7lv5SGlFKUaANoCUMImRyUOOlH9r+UhpRSlGgDaAlDCLhf0NGDtfi/lIaUUpRoA2gJQwi5eSaz+av3v5SGlFKUaANoCUMIuF/Q0YO1+L+UhpRSlGgDaAlDCJkclDjpR/a/lIaUUpRoA2gJQwjlFfDYTs8OQJSGlFKUaANoCUMIEI2tDt/w8j+UhpRSlGgDaAlDCDeH2tO9V/s/lIaUUpRoA2gJQwjFvinYcyD5P5SGlFKUaANoCUMIgMOtLyzw+D+UhpRSlGgDaAlDCDq7hpapRPk/lIaUUpRoA2gJQwjycD7mcjXoP5SGlFKUaANoCUMI8nA+5nI16D+UhpRSlGgDaAlDCA2sMCzz2eU/lIaUUpRoA2gJQwi3ae3kaEgTQJSGlFKUaANoCUMIHD5zOXU86j+UhpRSlGgDaAlDCBw+czl1POo/lIaUUpRoA2gJQwjM7XT9Plv8P5SGlFKUaANoCUMILkvkvbeh+D+UhpRSlGgDaAlDCCPOlvSKg/g/lIaUUpRoA2gJQwguS+S9t6H4P5SGlFKUaANoCUMIzO10/T5b/D+UhpRSlGgDaAlDCENg5TX4qBNAlIaUUpRoA2gJQwjaT9bi6kbwP5SGlFKUaANoCUMI2k/W4upG8D+UhpRSlGgDaAlDCDBSwzS9ZwxAlIaUUpRoA2gJQwg0Rbm8CfTpP5SGlFKUaANoCUMINEW5vAn06T+UhpRSlGgDaAlDCOW647w5eO8/lIaUUpRoA2gJQwgLjhjwSyDhP5SGlFKUaANoCUMIC44Y8Esg4T+UhpRSlGgDaAlDCAuOGPBLIOE/lIaUUpRoA2gJQwgLjhjwSyDhP5SGlFKUaANoCUMIC44Y8Esg4T+UhpRSlGgDaAlDCAuOGPBLIOE/lIaUUpRoA2gJQwjbpU0AXSwOQJSGlFKUaANoCUMIZIi76atL+z+UhpRSlGgDaAlDCEQ41F/WYvk/lIaUUpRoA2gJQwhkiLvpq0v7P5SGlFKUaANoCUMIRDjUX9Zi+T+UhpRSlGgDaAlDCNBGhYlAB+Q/lIaUUpRoA2gJQwjQRoWJQAfkP5SGlFKUaANoCUMI0EaFiUAH5D+UhpRSlGgDaAlDCAuOGPBLIOE/lIaUUpRoA2gJQwgLjhjwSyDhP5SGlFKUaANoCUMIC44Y8Esg4T+UhpRSlGgDaAlDCJjXnqP7Ivg/lIaUUpRoA2gJQwgk20Hlxf73P5SGlFKUaANoCUMI6UK9JDX2+D+UhpRSlGgDaAlDCBZEnjoj6vg/lIaUUpRoA2gJQwiuxI5FGuT4P5SGlFKUaANoCUMIFkSeOiPq+D+UhpRSlGgDaAlDCOlCvSQ19vg/lIaUUpRlLg==

$$$$
14
     RDKit          3D

 98102  0  0  1  0  0  0  0  0999 V2000
   14.3070   22.9110    5.6430 C   0  0  1  0  0  0  0  0  0  0  0  0
   14.5790   21.3770    5.3860 C   0  0  0  0  0  0  0  0  0  0  0  0
   13.6330   20.5620    5.4030 O   0  0  0  0  0  0  0  0  0  0  0  0
   15.8330   20.9260    5.1890 N   0  0  0  0  0  0  0  0  0  0  0  0
   16.1290   19.4960    4.9900 C   0  0  1  0  0  0  0  0  0  0  0  0
   16.0890   18.9950    3.5740 C   0  0  0  0  0  0  0  0  0  0  0  0
   15.2500   19.4110    2.4890 C   0  0  0  0  0  0  0  0  0  0  0  0
   15.4250   18.7590    1.2180 C   0  0  0  0  0  0  0  0  0  0  0  0
   16.4120   17.7250    1.0620 C   0  0  0  0  0  0  0  0  0  0  0  0
   17.2390   17.3220    2.1630 C   0  0  0  0  0  0  0  0  0  0  0  0
   17.0540   17.9780    3.4120 C   0  0  0  0  0  0  0  0  0  0  0  0
   17.7990   17.7320    4.7040 C   0  0  0  0  0  0  0  0  0  0  0  0
   17.5230   19.0220    5.5170 C   0  0  1  0  0  0  0  0  0  0  0  0
   18.5730   19.9140    5.1680 O   0  0  0  0  0  0  0  0  0  0  0  0
   14.1110   23.1820    7.1760 C   0  0  0  0  0  0  0  0  0  0  0  0
   14.9730   22.3470    8.1180 C   0  0  0  0  0  0  0  0  0  0  0  0
   16.3810   22.6040    8.2360 C   0  0  0  0  0  0  0  0  0  0  0  0
   17.1780   21.7980    9.1060 C   0  0  0  0  0  0  0  0  0  0  0  0
   16.5770   20.7350    9.8590 C   0  0  0  0  0  0  0  0  0  0  0  0
   15.1730   20.4770    9.7450 C   0  0  0  0  0  0  0  0  0  0  0  0
   14.3750   21.2800    8.8770 C   0  0  0  0  0  0  0  0  0  0  0  0
   15.4120   23.7170    5.2220 O   0  0  0  0  0  0  0  0  0  0  0  0
   13.0310   22.9480    4.7450 C   0  0  0  0  0  0  0  0  0  0  0  0
   12.0780   23.9550    4.3850 N   0  0  0  0  0  0  0  0  0  0  0  0
   11.4140   24.7110    5.3210 N   0  0  0  0  0  0  0  0  0  0  0  0
   11.5480   23.4280    3.1080 C   0  0  0  0  0  0  0  0  0  0  0  0
   10.5400   24.4360    6.3090 C   0  0  0  0  0  0  0  0  0  0  0  0
   10.3620   23.2950    6.7660 O   0  0  0  0  0  0  0  0  0  0  0  0
    9.7620   25.6600    6.8290 C   0  0  2  0  0  0  0  0  0  0  0  0
    9.6900   25.9050    8.3760 C   0  0  0  0  0  0  0  0  0  0  0  0
    8.9260   27.2100    8.7310 C   0  0  0  0  0  0  0  0  0  0  0  0
    8.9130   24.7670    9.0460 C   0  0  0  0  0  0  0  0  0  0  0  0
    8.3920   25.5860    6.2930 N   0  0  0  0  0  0  0  0  0  0  0  0
    7.8210   26.4840    5.4740 C   0  0  0  0  0  0  0  0  0  0  0  0
    8.4670   27.4840    5.1070 O   0  0  0  0  0  0  0  0  0  0  0  0
    6.5440   26.2540    5.0890 O   0  0  0  0  0  0  0  0  0  0  0  0
   10.0340   23.4700    2.9970 C   0  0  0  0  0  0  0  0  0  0  0  0
    9.4220   24.4510    2.1580 C   0  0  0  0  0  0  0  0  0  0  0  0
    7.9990   24.5180    2.0510 C   0  0  0  0  0  0  0  0  0  0  0  0
    7.1660   23.6030    2.7910 C   0  0  0  0  0  0  0  0  0  0  0  0
    9.2150   22.5500    3.7300 C   0  0  0  0  0  0  0  0  0  0  0  0
    7.7910   22.6170    3.6320 C   0  0  0  0  0  0  0  0  0  0  0  0
    5.8550   27.1580    4.2320 C   0  0  0  0  0  0  0  0  0  0  0  0
   11.0770   26.0020    9.0310 C   0  0  0  0  0  0  0  0  0  0  0  0
    5.6714   23.6768    2.6876 C   0  0  0  0  0  0  0  0  0  0  0  0
    4.4545   23.7374    2.6064 C   0  0  0  0  0  0  0  0  0  0  0  0
    2.9594   23.8098    2.5101 C   0  0  0  0  0  0  0  0  0  0  0  0
    2.1703   23.2050    3.4813 C   0  0  0  0  0  0  0  0  0  0  0  0
    0.7850   23.2721    3.3920 C   0  0  0  0  0  0  0  0  0  0  0  0
    0.1887   23.9440    2.3315 C   0  0  0  0  0  0  0  0  0  0  0  0
    0.9777   24.5488    1.3603 C   0  0  0  0  0  0  0  0  0  0  0  0
    2.3631   24.4818    1.4496 C   0  0  0  0  0  0  0  0  0  0  0  0
   16.6043   21.5730    5.1810 H   0  0  0  0  0  0  0  0  0  0  0  0
   15.3918   18.8964    5.5295 H   0  0  0  0  0  0  0  0  0  0  0  0
   14.5062   20.1829    2.6244 H   0  0  0  0  0  0  0  0  0  0  0  0
   14.8071   19.0456    0.3793 H   0  0  0  0  0  0  0  0  0  0  0  0
   16.5294   17.2425    0.1025 H   0  0  0  0  0  0  0  0  0  0  0  0
   17.9782   16.5428    2.0445 H   0  0  0  0  0  0  0  0  0  0  0  0
   17.3594   16.8638    5.1967 H   0  0  0  0  0  0  0  0  0  0  0  0
   18.8600   17.5325    4.5463 H   0  0  0  0  0  0  0  0  0  0  0  0
   17.5366   18.8605    6.5961 H   0  0  0  0  0  0  0  0  0  0  0  0
   18.3959   20.7798    5.5430 H   0  0  0  0  0  0  0  0  0  0  0  0
   14.2490   24.2402    7.3996 H   0  0  0  0  0  0  0  0  0  0  0  0
   13.0676   22.9792    7.4222 H   0  0  0  0  0  0  0  0  0  0  0  0
   16.8465   23.4100    7.6891 H   0  0  0  0  0  0  0  0  0  0  0  0
   18.2373   21.9900    9.1996 H   0  0  0  0  0  0  0  0  0  0  0  0
   17.1843   20.1292   10.5159 H   0  0  0  0  0  0  0  0  0  0  0  0
   14.7181   19.6766   10.3104 H   0  0  0  0  0  0  0  0  0  0  0  0
   13.3172   21.0737    8.7853 H   0  0  0  0  0  0  0  0  0  0  0  0
   15.2169   24.6417    5.3908 H   0  0  0  0  0  0  0  0  0  0  0  0
   13.4621   22.6005    3.7986 H   0  0  0  0  0  0  0  0  0  0  0  0
   12.3077   22.2197    5.1168 H   0  0  0  0  0  0  0  0  0  0  0  0
   11.4310   25.6967    5.1048 H   0  0  0  0  0  0  0  0  0  0  0  0
   11.9973   23.9865    2.2859 H   0  0  0  0  0  0  0  0  0  0  0  0
   11.7730   22.3741    2.9225 H   0  0  0  0  0  0  0  0  0  0  0  0
   10.2663   26.5386    6.4223 H   0  0  0  0  0  0  0  0  0  0  0  0
    7.9061   27.1493    8.3513 H   0  0  0  0  0  0  0  0  0  0  0  0
    8.9032   27.3353    9.8135 H   0  0  0  0  0  0  0  0  0  0  0  0
    9.4318   28.0625    8.2777 H   0  0  0  0  0  0  0  0  0  0  0  0
    8.8659   24.9421   10.1208 H   0  0  0  0  0  0  0  0  0  0  0  0
    7.9022   24.7283    8.6401 H   0  0  0  0  0  0  0  0  0  0  0  0
    9.4174   23.8199    8.8544 H   0  0  0  0  0  0  0  0  0  0  0  0
    7.8581   24.7532    6.4858 H   0  0  0  0  0  0  0  0  0  0  0  0
   10.0322   25.1512    1.6062 H   0  0  0  0  0  0  0  0  0  0  0  0
    7.5445   25.2643    1.4161 H   0  0  0  0  0  0  0  0  0  0  0  0
    9.6765   21.8182    4.3789 H   0  0  0  0  0  0  0  0  0  0  0  0
    7.1841   21.9248    4.1973 H   0  0  0  0  0  0  0  0  0  0  0  0
    4.8467   26.7874    4.0474 H   0  0  0  0  0  0  0  0  0  0  0  0
    5.8002   28.1382    4.7056 H   0  0  0  0  0  0  0  0  0  0  0  0
    6.3898   27.2416    3.2859 H   0  0  0  0  0  0  0  0  0  0  0  0
   10.9627   26.1719   10.1016 H   0  0  0  0  0  0  0  0  0  0  0  0
   11.6225   25.0726    8.8673 H   0  0  0  0  0  0  0  0  0  0  0  0
   11.6308   26.8304    8.5893 H   0  0  0  0  0  0  0  0  0  0  0  0
    2.6346   22.6819    4.3069 H   0  0  0  0  0  0  0  0  0  0  0  0
    0.1707   22.8012    4.1481 H   0  0  0  0  0  0  0  0  0  0  0  0
   -0.8899   23.9962    2.2620 H   0  0  0  0  0  0  0  0  0  0  0  0
    0.5135   25.0720    0.5347 H   0  0  0  0  0  0  0  0  0  0  0  0
    2.9774   24.9526    0.6935 H   0  0  0  0  0  0  0  0  0  0  0  0
  1  2  1  0
  1 15  1  0
  1 22  1  6
  1 23  1  0
  2  3  2  0
  2  4  1  0
  4  5  1  0
  4 53  1  0
  5  6  1  0
  5 13  1  0
  5 54  1  1
  6  7  2  0
  6 11  1  0
  7  8  1  0
  7 55  1  0
  8  9  2  0
  8 56  1  0
  9 10  1  0
  9 57  1  0
 10 11  2  0
 10 58  1  0
 11 12  1  0
 12 13  1  0
 12 59  1  0
 12 60  1  0
 13 14  1  0
 13 61  1  1
 14 62  1  0
 15 16  1  0
 15 63  1  0
 15 64  1  0
 16 17  2  0
 16 21  1  0
 17 18  1  0
 17 65  1  0
 18 19  2  0
 18 66  1  0
 19 20  1  0
 19 67  1  0
 20 21  2  0
 20 68  1  0
 21 69  1  0
 22 70  1  0
 23 24  1  0
 23 71  1  0
 23 72  1  0
 24 25  1  0
 24 26  1  0
 25 27  1  0
 25 73  1  0
 26 37  1  0
 26 74  1  0
 26 75  1  0
 27 28  2  0
 27 29  1  0
 29 30  1  0
 29 33  1  0
 29 76  1  6
 30 31  1  0
 30 32  1  0
 30 44  1  0
 31 77  1  0
 31 78  1  0
 31 79  1  0
 32 80  1  0
 32 81  1  0
 32 82  1  0
 33 34  1  0
 33 83  1  0
 34 35  2  0
 34 36  1  0
 36 43  1  0
 37 38  2  0
 37 41  1  0
 38 39  1  0
 38 84  1  0
 39 40  2  0
 39 85  1  0
 40 42  1  0
 40 45  1  0
 41 42  2  0
 41 86  1  0
 42 87  1  0
 43 88  1  0
 43 89  1  0
 43 90  1  0
 44 91  1  0
 44 92  1  0
 44 93  1  0
 45 46  3  0
 46 47  1  0
 47 52  1  0
 47 48  2  0
 48 49  1  0
 48 94  1  0
 49 50  2  0
 49 95  1  0
 50 51  1  0
 50 96  1  0
 51 52  2  0
 51 97  1  0
 52 98  1  0
M  END
>  <i_m_Source_File_Index>  (7) 
7

>  <b_m_subgroup_collapsed>  (7) 
0

>  <r_exp_dg>  (7) 
-10.6737

>  <s_m_Source_File>  (7) 
hiv_prot_ekegren_ligands.sdf

>  <s_m_Source_Path>  (7) 
path\input_structures\original_structures\misc

>  <s_m_entry_id>  (7) 
17

>  <s_m_entry_name>  (7) 
hiv_prot_ekegren_ligands.7

>  <s_m_subgroup_title>  (7) 
misc->HIV1 protease->hiv_prot_ekegren_ligands

>  <s_m_subgroupid>  (7) 
misc->HIV1 protease->hiv_prot_ekegren_ligands

>  <experimental dG reference units>  (7) 
kcal/mol

>  <experimental dG reference field>  (7) 
r_exp_dg

>  <kJ/mol experimental dG>  (7) 
-44.6587608

>  <kcal/mol experimental dG>  (7) 
-10.6737

>  <AmberAM1BCCCache>  (7) 
gASVoQcAAAAAAABdlCiMFm51bXB5Ll9jb3JlLm11bHRpYXJyYXmUjAZzY2FsYXKUk5SMBW51bXB5lIwFZHR5cGWUk5SMAmY4lImIh5RSlChLA4wBPJROTk5K/////0r/////SwB0lGJDCMuzuve84PE/lIaUUpRoA2gJQwgLTQRxfLwdQJSGlFKUaANoCUMIkvV6U3/eHMCUhpRSlGgDaAlDCD4XY3bfexnAlIaUUpRoA2gJQwiHQ4RypXD6P5SGlFKUaANoCUMIPU5M2SDX9L+UhpRSlGgDaAlDCJ6Eusfoq/K/lIaUUpRoA2gJQwjcrC7iDDz5v5SGlFKUaANoCUMI4ODapPgo97+UhpRSlGgDaAlDCFEh5pnJofa/lIaUUpRoA2gJQwih+JQqR9btv5SGlFKUaANoCUMIFNj76k8C6b+UhpRSlGgDaAlDCKB+drglFfg/lIaUUpRoA2gJQwg267dty0IcwJSGlFKUaANoCUMIOGodmu432L+UhpRSlGgDaAlDCNwHk91mhfG/lIaUUpRoA2gJQwjsjCr6rWz2v5SGlFKUaANoCUMIXxEtv1xP+b+UhpRSlGgDaAlDCLSbS1hv4Pe/lIaUUpRoA2gJQwhfES2/XE/5v5SGlFKUaANoCUMI7Iwq+q1s9r+UhpRSlGgDaAlDCBobdTCXZBzAlIaUUpRoA2gJQwjIdQNhTXr6P5SGlFKUaANoCUMICNqLSuvRFsCUhpRSlGgDaAlDCCgaKMfOPRPAlIaUUpRoA2gJQwgIpWNoEycAQJSGlFKUaANoCUMInTP6TVy1HECUhpRSlGgDaAlDCPEePlEMOBvAlIaUUpRoA2gJQwip4IyZ5KHgP5SGlFKUaANoCUMIYaWhEvQG3r+UhpRSlGgDaAlDCH3retAUp/K/lIaUUpRoA2gJQwh963rQFKfyv5SGlFKUaANoCUMIBeKMBMOFF8CUhpRSlGgDaAlDCBtRb+X7QCFAlIaUUpRoA2gJQwjL0a1KqzsbwJSGlFKUaANoCUMI/LpCmc/+FMCUhpRSlGgDaAlDCNN1mWknOPG/lIaUUpRoA2gJQwht19L1h4n3v5SGlFKUaANoCUMIlocRS12Y9L+UhpRSlGgDaAlDCGFnKU8QhNQ/lIaUUpRoA2gJQwht19L1h4n3v5SGlFKUaANoCUMIlocRS12Y9L+UhpRSlGgDaAlDCJ1KyvU5KPo/lIaUUpRoA2gJQwh963rQFKfyv5SGlFKUaANoCUMIgJohqT7X87+UhpRSlGgDaAlDCJ6Eusfoq/K/lIaUUpRoA2gJQwj8V3OZtgvRP5SGlFKUaANoCUMIQzGfdDb087+UhpRSlGgDaAlDCFtIMAW9KPm/lIaUUpRoA2gJQwgUuGNlwb72v5SGlFKUaANoCUMIW0gwBb0o+b+UhpRSlGgDaAlDCEMxn3Q29PO/lIaUUpRoA2gJQwh/+KIg0DMPQJSGlFKUaANoCUMIZh//V6Gr8T+UhpRSlGgDaAlDCJdnd1okC/s/lIaUUpRoA2gJQwghyR60/zH5P5SGlFKUaANoCUMI3M2iC7gB+T+UhpRSlGgDaAlDCKj2GUvva/k/lIaUUpRoA2gJQwiYR9/UlcfoP5SGlFKUaANoCUMImEff1JXH6D+UhpRSlGgDaAlDCCXdMvFc2+Q/lIaUUpRoA2gJQwhXz48dMm8TQJSGlFKUaANoCUMIdCma8/8F7D+UhpRSlGgDaAlDCHQpmvP/Bew/lIaUUpRoA2gJQwi9ybMLmDb7P5SGlFKUaANoCUMIVqCndMjH+D+UhpRSlGgDaAlDCAvcLhLhcPg/lIaUUpRoA2gJQwhWoKd0yMf4P5SGlFKUaANoCUMIvcmzC5g2+z+UhpRSlGgDaAlDCPnMzfFVhxNAlIaUUpRoA2gJQwgAteI7Q6DuP5SGlFKUaANoCUMIALXiO0Og7j+UhpRSlGgDaAlDCOuJBz13fA1AlIaUUpRoA2gJQwjH6rvScnDqP5SGlFKUaANoCUMIx+q70nJw6j+UhpRSlGgDaAlDCLu5ZpP7b+4/lIaUUpRoA2gJQwjTWAjtlFzhP5SGlFKUaANoCUMI01gI7ZRc4T+UhpRSlGgDaAlDCNNYCO2UXOE/lIaUUpRoA2gJQwjTWAjtlFzhP5SGlFKUaANoCUMI01gI7ZRc4T+UhpRSlGgDaAlDCNNYCO2UXOE/lIaUUpRoA2gJQwi8e3s2Tg0OQJSGlFKUaANoCUMI4/TsdquI+z+UhpRSlGgDaAlDCI3Vfebkvfo/lIaUUpRoA2gJQwjj9Ox2q4j7P5SGlFKUaANoCUMIjdV95uS9+j+UhpRSlGgDaAlDCFwccRWFAOQ/lIaUUpRoA2gJQwhcHHEVhQDkP5SGlFKUaANoCUMIXBxxFYUA5D+UhpRSlGgDaAlDCNNYCO2UXOE/lIaUUpRoA2gJQwjTWAjtlFzhP5SGlFKUaANoCUMI01gI7ZRc4T+UhpRSlGgDaAlDCGLhR8ExRfo/lIaUUpRoA2gJQwgF+dt2y1P5P5SGlFKUaANoCUMIoGQg168e+T+UhpRSlGgDaAlDCAX523bLU/k/lIaUUpRoA2gJQwhi4UfBMUX6P5SGlFKUZS4=

$$$$
15
     RDKit          3D

 97101  0  0  1  0  0  0  0  0999 V2000
   14.3070   22.9110    5.6430 C   0  0  1  0  0  0  0  0  0  0  0  0
   14.5790   21.3770    5.3860 C   0  0  0  0  0  0  0  0  0  0  0  0
   13.6330   20.5620    5.4030 O   0  0  0  0  0  0  0  0  0  0  0  0
   15.8330   20.9260    5.1890 N   0  0  0  0  0  0  0  0  0  0  0  0
   16.1290   19.4960    4.9900 C   0  0  1  0  0  0  0  0  0  0  0  0
   16.0890   18.9950    3.5740 C   0  0  0  0  0  0  0  0  0  0  0  0
   15.2500   19.4110    2.4890 C   0  0  0  0  0  0  0  0  0  0  0  0
   15.4250   18.7590    1.2180 C   0  0  0  0  0  0  0  0  0  0  0  0
   16.4120   17.7250    1.0620 C   0  0  0  0  0  0  0  0  0  0  0  0
   17.2390   17.3220    2.1630 C   0  0  0  0  0  0  0  0  0  0  0  0
   17.0540   17.9780    3.4120 C   0  0  0  0  0  0  0  0  0  0  0  0
   17.7990   17.7320    4.7040 C   0  0  0  0  0  0  0  0  0  0  0  0
   17.5230   19.0220    5.5170 C   0  0  1  0  0  0  0  0  0  0  0  0
   18.5730   19.9140    5.1680 O   0  0  0  0  0  0  0  0  0  0  0  0
   14.1110   23.1820    7.1760 C   0  0  0  0  0  0  0  0  0  0  0  0
   14.9730   22.3470    8.1180 C   0  0  0  0  0  0  0  0  0  0  0  0
   16.3810   22.6040    8.2360 C   0  0  0  0  0  0  0  0  0  0  0  0
   17.1780   21.7980    9.1060 C   0  0  0  0  0  0  0  0  0  0  0  0
   16.5770   20.7350    9.8590 C   0  0  0  0  0  0  0  0  0  0  0  0
   15.1730   20.4770    9.7450 C   0  0  0  0  0  0  0  0  0  0  0  0
   14.3750   21.2800    8.8770 C   0  0  0  0  0  0  0  0  0  0  0  0
   15.4120   23.7170    5.2220 O   0  0  0  0  0  0  0  0  0  0  0  0
   13.0310   22.9480    4.7450 C   0  0  0  0  0  0  0  0  0  0  0  0
   12.0780   23.9550    4.3850 N   0  0  0  0  0  0  0  0  0  0  0  0
   11.4140   24.7110    5.3210 N   0  0  0  0  0  0  0  0  0  0  0  0
   11.5480   23.4280    3.1080 C   0  0  0  0  0  0  0  0  0  0  0  0
   10.5400   24.4360    6.3090 C   0  0  0  0  0  0  0  0  0  0  0  0
   10.3620   23.2950    6.7660 O   0  0  0  0  0  0  0  0  0  0  0  0
    9.7620   25.6600    6.8290 C   0  0  2  0  0  0  0  0  0  0  0  0
    9.6900   25.9050    8.3760 C   0  0  0  0  0  0  0  0  0  0  0  0
    8.9260   27.2100    8.7310 C   0  0  0  0  0  0  0  0  0  0  0  0
    8.9130   24.7670    9.0460 C   0  0  0  0  0  0  0  0  0  0  0  0
    8.3920   25.5860    6.2930 N   0  0  0  0  0  0  0  0  0  0  0  0
    7.8210   26.4840    5.4740 C   0  0  0  0  0  0  0  0  0  0  0  0
    8.4670   27.4840    5.1070 O   0  0  0  0  0  0  0  0  0  0  0  0
    6.5440   26.2540    5.0890 O   0  0  0  0  0  0  0  0  0  0  0  0
   10.0340   23.4700    2.9970 C   0  0  0  0  0  0  0  0  0  0  0  0
    9.4220   24.4510    2.1580 C   0  0  0  0  0  0  0  0  0  0  0  0
    7.9990   24.5180    2.0510 C   0  0  0  0  0  0  0  0  0  0  0  0
    7.1660   23.6030    2.7910 C   0  0  0  0  0  0  0  0  0  0  0  0
    9.2150   22.5500    3.7300 C   0  0  0  0  0  0  0  0  0  0  0  0
    7.7910   22.6170    3.6320 C   0  0  0  0  0  0  0  0  0  0  0  0
    5.8550   27.1580    4.2320 C   0  0  0  0  0  0  0  0  0  0  0  0
   11.0770   26.0020    9.0310 C   0  0  0  0  0  0  0  0  0  0  0  0
    5.6714   23.6768    2.6876 C   0  0  0  0  0  0  0  0  0  0  0  0
    4.4545   23.7374    2.6064 C   0  0  0  0  0  0  0  0  0  0  0  0
    2.9594   23.8098    2.5101 C   0  0  0  0  0  0  0  0  0  0  0  0
    2.1568   23.2075    3.4775 C   0  0  0  0  0  0  0  0  0  0  0  0
    0.7687   23.2879    3.3671 C   0  0  0  0  0  0  0  0  0  0  0  0
    0.2184   23.9726    2.2858 C   0  0  0  0  0  0  0  0  0  0  0  0
    1.0829   24.5502    1.3569 C   0  0  0  0  0  0  0  0  0  0  0  0
    2.4363   24.4795    1.4522 N   0  0  0  0  0  0  0  0  0  0  0  0
   16.6043   21.5730    5.1810 H   0  0  0  0  0  0  0  0  0  0  0  0
   15.3918   18.8964    5.5295 H   0  0  0  0  0  0  0  0  0  0  0  0
   14.5062   20.1829    2.6244 H   0  0  0  0  0  0  0  0  0  0  0  0
   14.8071   19.0456    0.3793 H   0  0  0  0  0  0  0  0  0  0  0  0
   16.5294   17.2425    0.1025 H   0  0  0  0  0  0  0  0  0  0  0  0
   17.9782   16.5428    2.0445 H   0  0  0  0  0  0  0  0  0  0  0  0
   17.3594   16.8638    5.1967 H   0  0  0  0  0  0  0  0  0  0  0  0
   18.8600   17.5325    4.5463 H   0  0  0  0  0  0  0  0  0  0  0  0
   17.5366   18.8605    6.5961 H   0  0  0  0  0  0  0  0  0  0  0  0
   18.3959   20.7798    5.5430 H   0  0  0  0  0  0  0  0  0  0  0  0
   14.2490   24.2402    7.3996 H   0  0  0  0  0  0  0  0  0  0  0  0
   13.0676   22.9792    7.4222 H   0  0  0  0  0  0  0  0  0  0  0  0
   16.8465   23.4100    7.6891 H   0  0  0  0  0  0  0  0  0  0  0  0
   18.2373   21.9900    9.1996 H   0  0  0  0  0  0  0  0  0  0  0  0
   17.1843   20.1292   10.5159 H   0  0  0  0  0  0  0  0  0  0  0  0
   14.7181   19.6766   10.3104 H   0  0  0  0  0  0  0  0  0  0  0  0
   13.3172   21.0737    8.7853 H   0  0  0  0  0  0  0  0  0  0  0  0
   15.2169   24.6417    5.3908 H   0  0  0  0  0  0  0  0  0  0  0  0
   13.4621   22.6005    3.7986 H   0  0  0  0  0  0  0  0  0  0  0  0
   12.3077   22.2197    5.1168 H   0  0  0  0  0  0  0  0  0  0  0  0
   11.4310   25.6967    5.1048 H   0  0  0  0  0  0  0  0  0  0  0  0
   11.9973   23.9865    2.2859 H   0  0  0  0  0  0  0  0  0  0  0  0
   11.7730   22.3741    2.9225 H   0  0  0  0  0  0  0  0  0  0  0  0
   10.2663   26.5386    6.4223 H   0  0  0  0  0  0  0  0  0  0  0  0
    7.9061   27.1493    8.3513 H   0  0  0  0  0  0  0  0  0  0  0  0
    8.9032   27.3353    9.8135 H   0  0  0  0  0  0  0  0  0  0  0  0
    9.4318   28.0625    8.2777 H   0  0  0  0  0  0  0  0  0  0  0  0
    8.8659   24.9421   10.1208 H   0  0  0  0  0  0  0  0  0  0  0  0
    7.9022   24.7283    8.6401 H   0  0  0  0  0  0  0  0  0  0  0  0
    9.4174   23.8199    8.8544 H   0  0  0  0  0  0  0  0  0  0  0  0
    7.8581   24.7532    6.4858 H   0  0  0  0  0  0  0  0  0  0  0  0
   10.0322   25.1512    1.6062 H   0  0  0  0  0  0  0  0  0  0  0  0
    7.5445   25.2643    1.4161 H   0  0  0  0  0  0  0  0  0  0  0  0
    9.6765   21.8182    4.3789 H   0  0  0  0  0  0  0  0  0  0  0  0
    7.1841   21.9248    4.1973 H   0  0  0  0  0  0  0  0  0  0  0  0
    4.8467   26.7874    4.0474 H   0  0  0  0  0  0  0  0  0  0  0  0
    5.8002   28.1382    4.7056 H   0  0  0  0  0  0  0  0  0  0  0  0
    6.3898   27.2416    3.2859 H   0  0  0  0  0  0  0  0  0  0  0  0
   10.9627   26.1719   10.1016 H   0  0  0  0  0  0  0  0  0  0  0  0
   11.6225   25.0726    8.8673 H   0  0  0  0  0  0  0  0  0  0  0  0
   11.6308   26.8304    8.5893 H   0  0  0  0  0  0  0  0  0  0  0  0
    2.6088   22.6818    4.3074 H   0  0  0  0  0  0  0  0  0  0  0  0
    0.1304   22.8265    4.1085 H   0  0  0  0  0  0  0  0  0  0  0  0
   -0.8535   24.0549    2.1684 H   0  0  0  0  0  0  0  0  0  0  0  0
    0.6823   25.0886    0.5062 H   0  0  0  0  0  0  0  0  0  0  0  0
  1  2  1  0
  1 15  1  0
  1 22  1  6
  1 23  1  0
  2  3  2  0
  2  4  1  0
  4  5  1  0
  4 53  1  0
  5  6  1  0
  5 13  1  0
  5 54  1  1
  6  7  2  0
  6 11  1  0
  7  8  1  0
  7 55  1  0
  8  9  2  0
  8 56  1  0
  9 10  1  0
  9 57  1  0
 10 11  2  0
 10 58  1  0
 11 12  1  0
 12 13  1  0
 12 59  1  0
 12 60  1  0
 13 14  1  0
 13 61  1  1
 14 62  1  0
 15 16  1  0
 15 63  1  0
 15 64  1  0
 16 17  2  0
 16 21  1  0
 17 18  1  0
 17 65  1  0
 18 19  2  0
 18 66  1  0
 19 20  1  0
 19 67  1  0
 20 21  2  0
 20 68  1  0
 21 69  1  0
 22 70  1  0
 23 24  1  0
 23 71  1  0
 23 72  1  0
 24 25  1  0
 24 26  1  0
 25 27  1  0
 25 73  1  0
 26 37  1  0
 26 74  1  0
 26 75  1  0
 27 28  2  0
 27 29  1  0
 29 30  1  0
 29 33  1  0
 29 76  1  6
 30 31  1  0
 30 32  1  0
 30 44  1  0
 31 77  1  0
 31 78  1  0
 31 79  1  0
 32 80  1  0
 32 81  1  0
 32 82  1  0
 33 34  1  0
 33 83  1  0
 34 35  2  0
 34 36  1  0
 36 43  1  0
 37 38  2  0
 37 41  1  0
 38 39  1  0
 38 84  1  0
 39 40  2  0
 39 85  1  0
 40 42  1  0
 40 45  1  0
 41 42  2  0
 41 86  1  0
 42 87  1  0
 43 88  1  0
 43 89  1  0
 43 90  1  0
 44 91  1  0
 44 92  1  0
 44 93  1  0
 45 46  3  0
 46 47  1  0
 47 52  1  0
 47 48  2  0
 48 49  1  0
 48 94  1  0
 49 50  2  0
 49 95  1  0
 50 51  1  0
 50 96  1  0
 51 52  2  0
 51 97  1  0
M  END
>  <i_m_Source_File_Index>  (8) 
8

>  <b_m_subgroup_collapsed>  (8) 
0

>  <r_exp_dg>  (8) 
-10.9764

>  <s_m_Source_File>  (8) 
hiv_prot_ekegren_ligands.sdf

>  <s_m_Source_Path>  (8) 
path\input_structures\original_structures\misc

>  <s_m_entry_id>  (8) 
18

>  <s_m_entry_name>  (8) 
hiv_prot_ekegren_ligands.8

>  <s_m_subgroup_title>  (8) 
misc->HIV1 protease->hiv_prot_ekegren_ligands

>  <s_m_subgroupid>  (8) 
misc->HIV1 protease->hiv_prot_ekegren_ligands

>  <experimental dG reference units>  (8) 
kcal/mol

>  <experimental dG reference field>  (8) 
r_exp_dg

>  <kJ/mol experimental dG>  (8) 
-45.9252576

>  <kcal/mol experimental dG>  (8) 
-10.9764

>  <AmberAM1BCCCache>  (8) 
gASVjgcAAAAAAABdlCiMFm51bXB5Ll9jb3JlLm11bHRpYXJyYXmUjAZzY2FsYXKUk5SMBW51bXB5lIwFZHR5cGWUk5SMAmY4lImIh5RSlChLA4wBPJROTk5K/////0r/////SwB0lGJDCCosuTWtcfI/lIaUUpRoA2gJQwi4jcsm/YQdQJSGlFKUaANoCUMIo4/fn5GHHMCUhpRSlGgDaAlDCKUU5YlTRBnAlIaUUpRoA2gJQwiQ0L/iuiP4P5SGlFKUaANoCUMIdic8Gp8a9b+UhpRSlGgDaAlDCInQNOzfcfK/lIaUUpRoA2gJQwiNjybS+x75v5SGlFKUaANoCUMIESjRcTcf97+UhpRSlGgDaAlDCEE2XXhgjva/lIaUUpRoA2gJQwijamm3cuTuv5SGlFKUaANoCUMIcp3ryi3I6L+UhpRSlGgDaAlDCNflkWx4Svc/lIaUUpRoA2gJQwhNThl0fRIcwJSGlFKUaANoCUMI7isAoAqd17+UhpRSlGgDaAlDCN1A/aN8DPK/lIaUUpRoA2gJQwiTjM9OhzL3v5SGlFKUaANoCUMICSso9asL+b+UhpRSlGgDaAlDCKawwjYGzfe/lIaUUpRoA2gJQwgJKyj1qwv5v5SGlFKUaANoCUMIk4zPTocy97+UhpRSlGgDaAlDCO2CWo4BBBzAlIaUUpRoA2gJQwjikeHBLY72P5SGlFKUaANoCUMIaw4RpL9zFsCUhpRSlGgDaAlDCBobTRwN4hLAlIaUUpRoA2gJQwjA7pb21Q/9P5SGlFKUaANoCUMIKugs/UP0G0CUhpRSlGgDaAlDCFzYES7lqxvAlIaUUpRoA2gJQwhR5JlzpgLhP5SGlFKUaANoCUMILVR0ui4t3r+UhpRSlGgDaAlDCCRtq8SKoPK/lIaUUpRoA2gJQwgkbavEiqDyv5SGlFKUaANoCUMIfhCt8PBjF8CUhpRSlGgDaAlDCDs8IRvBOSFAlIaUUpRoA2gJQwg8N9F8OfMawJSGlFKUaANoCUMIuuTeLUUNFcCUhpRSlGgDaAlDCCmYZE5iHu+/lIaUUpRoA2gJQwjSpPhbuUX4v5SGlFKUaANoCUMI6YGd8OWJ87+UhpRSlGgDaAlDCNAxqKMA98w/lIaUUpRoA2gJQwjSpPhbuUX4v5SGlFKUaANoCUMI6YGd8OWJ87+UhpRSlGgDaAlDCCrRVDpTKPo/lIaUUpRoA2gJQwgkbavEiqDyv5SGlFKUaANoCUMIN14KhY1Y7b+UhpRSlGgDaAlDCFT9/B8pnQPAlIaUUpRoA2gJQwigaY+lO9UYQJSGlFKUaANoCUMIr9i9eVQTBcCUhpRSlGgDaAlDCPoQQOGw6vG/lIaUUpRoA2gJQwggrhlm2cUGwJSGlFKUaANoCUMI5IPCzBmuEkCUhpRSlGgDaAlDCKJGhzKTax7AlIaUUpRoA2gJQwii2asRaQgPQJSGlFKUaANoCUMIlIlxj2jN8j+UhpRSlGgDaAlDCCAlBeWd5Po/lIaUUpRoA2gJQwi0GKayuFj5P5SGlFKUaANoCUMIqoasPnkL+T+UhpRSlGgDaAlDCHavI36wdfk/lIaUUpRoA2gJQwi75u3RBxXpP5SGlFKUaANoCUMIu+bt0QcV6T+UhpRSlGgDaAlDCCSV/1KZQOg/lIaUUpRoA2gJQwhhEhn/jh8TQJSGlFKUaANoCUMId4DCIHQe6z+UhpRSlGgDaAlDCHeAwiB0Hus/lIaUUpRoA2gJQwj133WYFJz7P5SGlFKUaANoCUMIC1JrJPUZ+T+UhpRSlGgDaAlDCCNZsaeJ0fg/lIaUUpRoA2gJQwgLUmsk9Rn5P5SGlFKUaANoCUMI9d91mBSc+z+UhpRSlGgDaAlDCBFrTQGSqxNAlIaUUpRoA2gJQwjMlKYSHVDwP5SGlFKUaANoCUMIzJSmEh1Q8D+UhpRSlGgDaAlDCGaKf77WGw5AlIaUUpRoA2gJQwifkaWqEXrsP5SGlFKUaANoCUMIn5GlqhF67D+UhpRSlGgDaAlDCHmqYw/cke8/lIaUUpRoA2gJQwgul3/KIjbhP5SGlFKUaANoCUMILpd/yiI24T+UhpRSlGgDaAlDCC6Xf8oiNuE/lIaUUpRoA2gJQwgul3/KIjbhP5SGlFKUaANoCUMILpd/yiI24T+UhpRSlGgDaAlDCC6Xf8oiNuE/lIaUUpRoA2gJQwhhwYIEN/UNQJSGlFKUaANoCUMIC+e7G6lT+z+UhpRSlGgDaAlDCImCvT5ZQPs/lIaUUpRoA2gJQwgL57sbqVP7P5SGlFKUaANoCUMIiYK9PllA+z+UhpRSlGgDaAlDCKTPXEGB4OM/lIaUUpRoA2gJQwikz1xBgeDjP5SGlFKUaANoCUMIpM9cQYHg4z+UhpRSlGgDaAlDCC6Xf8oiNuE/lIaUUpRoA2gJQwgul3/KIjbhP5SGlFKUaANoCUMILpd/yiI24T+UhpRSlGgDaAlDCAcEaYCTNvw/lIaUUpRoA2gJQwjWYIyCto36P5SGlFKUaANoCUMIMEn4zBx/+z+UhpRSlGgDaAlDCO4LcvqHFdM/lIaUUpRlLg==

$$$$
16
     RDKit          3D

 97101  0  0  1  0  0  0  0  0999 V2000
   14.3070   22.9110    5.6430 C   0  0  1  0  0  0  0  0  0  0  0  0
   14.5790   21.3770    5.3860 C   0  0  0  0  0  0  0  0  0  0  0  0
   13.6330   20.5620    5.4030 O   0  0  0  0  0  0  0  0  0  0  0  0
   15.8330   20.9260    5.1890 N   0  0  0  0  0  0  0  0  0  0  0  0
   16.1290   19.4960    4.9900 C   0  0  1  0  0  0  0  0  0  0  0  0
   16.0890   18.9950    3.5740 C   0  0  0  0  0  0  0  0  0  0  0  0
   15.2500   19.4110    2.4890 C   0  0  0  0  0  0  0  0  0  0  0  0
   15.4250   18.7590    1.2180 C   0  0  0  0  0  0  0  0  0  0  0  0
   16.4120   17.7250    1.0620 C   0  0  0  0  0  0  0  0  0  0  0  0
   17.2390   17.3220    2.1630 C   0  0  0  0  0  0  0  0  0  0  0  0
   17.0540   17.9780    3.4120 C   0  0  0  0  0  0  0  0  0  0  0  0
   17.7990   17.7320    4.7040 C   0  0  0  0  0  0  0  0  0  0  0  0
   17.5230   19.0220    5.5170 C   0  0  1  0  0  0  0  0  0  0  0  0
   18.5730   19.9140    5.1680 O   0  0  0  0  0  0  0  0  0  0  0  0
   14.1110   23.1820    7.1760 C   0  0  0  0  0  0  0  0  0  0  0  0
   14.9730   22.3470    8.1180 C   0  0  0  0  0  0  0  0  0  0  0  0
   16.3810   22.6040    8.2360 C   0  0  0  0  0  0  0  0  0  0  0  0
   17.1780   21.7980    9.1060 C   0  0  0  0  0  0  0  0  0  0  0  0
   16.5770   20.7350    9.8590 C   0  0  0  0  0  0  0  0  0  0  0  0
   15.1730   20.4770    9.7450 C   0  0  0  0  0  0  0  0  0  0  0  0
   14.3750   21.2800    8.8770 C   0  0  0  0  0  0  0  0  0  0  0  0
   15.4120   23.7170    5.2220 O   0  0  0  0  0  0  0  0  0  0  0  0
   13.0310   22.9480    4.7450 C   0  0  0  0  0  0  0  0  0  0  0  0
   12.0780   23.9550    4.3850 N   0  0  0  0  0  0  0  0  0  0  0  0
   11.4140   24.7110    5.3210 N   0  0  0  0  0  0  0  0  0  0  0  0
   11.5480   23.4280    3.1080 C   0  0  0  0  0  0  0  0  0  0  0  0
   10.5400   24.4360    6.3090 C   0  0  0  0  0  0  0  0  0  0  0  0
   10.3620   23.2950    6.7660 O   0  0  0  0  0  0  0  0  0  0  0  0
    9.7620   25.6600    6.8290 C   0  0  2  0  0  0  0  0  0  0  0  0
    9.6900   25.9050    8.3760 C   0  0  0  0  0  0  0  0  0  0  0  0
    8.9260   27.2100    8.7310 C   0  0  0  0  0  0  0  0  0  0  0  0
    8.9130   24.7670    9.0460 C   0  0  0  0  0  0  0  0  0  0  0  0
    8.3920   25.5860    6.2930 N   0  0  0  0  0  0  0  0  0  0  0  0
    7.8210   26.4840    5.4740 C   0  0  0  0  0  0  0  0  0  0  0  0
    8.4670   27.4840    5.1070 O   0  0  0  0  0  0  0  0  0  0  0  0
    6.5440   26.2540    5.0890 O   0  0  0  0  0  0  0  0  0  0  0  0
   10.0340   23.4700    2.9970 C   0  0  0  0  0  0  0  0  0  0  0  0
    9.4220   24.4510    2.1580 C   0  0  0  0  0  0  0  0  0  0  0  0
    7.9990   24.5180    2.0510 C   0  0  0  0  0  0  0  0  0  0  0  0
    7.1660   23.6030    2.7910 C   0  0  0  0  0  0  0  0  0  0  0  0
    9.2150   22.5500    3.7300 C   0  0  0  0  0  0  0  0  0  0  0  0
    7.7910   22.6170    3.6320 C   0  0  0  0  0  0  0  0  0  0  0  0
    5.8550   27.1580    4.2320 C   0  0  0  0  0  0  0  0  0  0  0  0
   11.0770   26.0020    9.0310 C   0  0  0  0  0  0  0  0  0  0  0  0
    5.6714   23.6768    2.6876 C   0  0  0  0  0  0  0  0  0  0  0  0
    4.4545   23.7374    2.6064 C   0  0  0  0  0  0  0  0  0  0  0  0
    2.9594   23.8098    2.5101 C   0  0  0  0  0  0  0  0  0  0  0  0
    2.1613   23.2052    3.4811 C   0  0  0  0  0  0  0  0  0  0  0  0
    0.7759   23.2910    3.3620 C   0  0  0  0  0  0  0  0  0  0  0  0
    0.2451   23.9805    2.2728 C   0  0  0  0  0  0  0  0  0  0  0  0
    1.0106   24.5739    1.3200 N   0  0  0  0  0  0  0  0  0  0  0  0
    2.3584   24.4830    1.4478 C   0  0  0  0  0  0  0  0  0  0  0  0
   16.6043   21.5730    5.1810 H   0  0  0  0  0  0  0  0  0  0  0  0
   15.3918   18.8964    5.5295 H   0  0  0  0  0  0  0  0  0  0  0  0
   14.5062   20.1829    2.6244 H   0  0  0  0  0  0  0  0  0  0  0  0
   14.8071   19.0456    0.3793 H   0  0  0  0  0  0  0  0  0  0  0  0
   16.5294   17.2425    0.1025 H   0  0  0  0  0  0  0  0  0  0  0  0
   17.9782   16.5428    2.0445 H   0  0  0  0  0  0  0  0  0  0  0  0
   17.3594   16.8638    5.1967 H   0  0  0  0  0  0  0  0  0  0  0  0
   18.8600   17.5325    4.5463 H   0  0  0  0  0  0  0  0  0  0  0  0
   17.5366   18.8605    6.5961 H   0  0  0  0  0  0  0  0  0  0  0  0
   18.3959   20.7798    5.5430 H   0  0  0  0  0  0  0  0  0  0  0  0
   14.2490   24.2402    7.3996 H   0  0  0  0  0  0  0  0  0  0  0  0
   13.0676   22.9792    7.4222 H   0  0  0  0  0  0  0  0  0  0  0  0
   16.8465   23.4100    7.6891 H   0  0  0  0  0  0  0  0  0  0  0  0
   18.2373   21.9900    9.1996 H   0  0  0  0  0  0  0  0  0  0  0  0
   17.1843   20.1292   10.5159 H   0  0  0  0  0  0  0  0  0  0  0  0
   14.7181   19.6766   10.3104 H   0  0  0  0  0  0  0  0  0  0  0  0
   13.3172   21.0737    8.7853 H   0  0  0  0  0  0  0  0  0  0  0  0
   15.2169   24.6417    5.3908 H   0  0  0  0  0  0  0  0  0  0  0  0
   13.4621   22.6005    3.7986 H   0  0  0  0  0  0  0  0  0  0  0  0
   12.3077   22.2197    5.1168 H   0  0  0  0  0  0  0  0  0  0  0  0
   11.4310   25.6967    5.1048 H   0  0  0  0  0  0  0  0  0  0  0  0
   11.9973   23.9865    2.2859 H   0  0  0  0  0  0  0  0  0  0  0  0
   11.7730   22.3741    2.9225 H   0  0  0  0  0  0  0  0  0  0  0  0
   10.2663   26.5386    6.4223 H   0  0  0  0  0  0  0  0  0  0  0  0
    7.9061   27.1493    8.3513 H   0  0  0  0  0  0  0  0  0  0  0  0
    8.9032   27.3353    9.8135 H   0  0  0  0  0  0  0  0  0  0  0  0
    9.4318   28.0625    8.2777 H   0  0  0  0  0  0  0  0  0  0  0  0
    8.8659   24.9421   10.1208 H   0  0  0  0  0  0  0  0  0  0  0  0
    7.9022   24.7283    8.6401 H   0  0  0  0  0  0  0  0  0  0  0  0
    9.4174   23.8199    8.8544 H   0  0  0  0  0  0  0  0  0  0  0  0
    7.8581   24.7532    6.4858 H   0  0  0  0  0  0  0  0  0  0  0  0
   10.0322   25.1512    1.6062 H   0  0  0  0  0  0  0  0  0  0  0  0
    7.5445   25.2643    1.4161 H   0  0  0  0  0  0  0  0  0  0  0  0
    9.6765   21.8182    4.3789 H   0  0  0  0  0  0  0  0  0  0  0  0
    7.1841   21.9248    4.1973 H   0  0  0  0  0  0  0  0  0  0  0  0
    4.8467   26.7874    4.0474 H   0  0  0  0  0  0  0  0  0  0  0  0
    5.8002   28.1382    4.7056 H   0  0  0  0  0  0  0  0  0  0  0  0
    6.3898   27.2416    3.2859 H   0  0  0  0  0  0  0  0  0  0  0  0
   10.9627   26.1719   10.1016 H   0  0  0  0  0  0  0  0  0  0  0  0
   11.6225   25.0726    8.8673 H   0  0  0  0  0  0  0  0  0  0  0  0
   11.6308   26.8304    8.5893 H   0  0  0  0  0  0  0  0  0  0  0  0
    2.6104   22.6786    4.3124 H   0  0  0  0  0  0  0  0  0  0  0  0
    0.1264   22.8342    4.0963 H   0  0  0  0  0  0  0  0  0  0  0  0
   -0.8289   24.0630    2.1552 H   0  0  0  0  0  0  0  0  0  0  0  0
    2.9626   24.9585    0.6844 H   0  0  0  0  0  0  0  0  0  0  0  0
  1  2  1  0
  1 15  1  0
  1 22  1  6
  1 23  1  0
  2  3  2  0
  2  4  1  0
  4  5  1  0
  4 53  1  0
  5  6  1  0
  5 13  1  0
  5 54  1  1
  6  7  2  0
  6 11  1  0
  7  8  1  0
  7 55  1  0
  8  9  2  0
  8 56  1  0
  9 10  1  0
  9 57  1  0
 10 11  2  0
 10 58  1  0
 11 12  1  0
 12 13  1  0
 12 59  1  0
 12 60  1  0
 13 14  1  0
 13 61  1  1
 14 62  1  0
 15 16  1  0
 15 63  1  0
 15 64  1  0
 16 17  2  0
 16 21  1  0
 17 18  1  0
 17 65  1  0
 18 19  2  0
 18 66  1  0
 19 20  1  0
 19 67  1  0
 20 21  2  0
 20 68  1  0
 21 69  1  0
 22 70  1  0
 23 24  1  0
 23 71  1  0
 23 72  1  0
 24 25  1  0
 24 26  1  0
 25 27  1  0
 25 73  1  0
 26 37  1  0
 26 74  1  0
 26 75  1  0
 27 28  2  0
 27 29  1  0
 29 30  1  0
 29 33  1  0
 29 76  1  6
 30 31  1  0
 30 32  1  0
 30 44  1  0
 31 77  1  0
 31 78  1  0
 31 79  1  0
 32 80  1  0
 32 81  1  0
 32 82  1  0
 33 34  1  0
 33 83  1  0
 34 35  2  0
 34 36  1  0
 36 43  1  0
 37 38  2  0
 37 41  1  0
 38 39  1  0
 38 84  1  0
 39 40  2  0
 39 85  1  0
 40 42  1  0
 40 45  1  0
 41 42  2  0
 41 86  1  0
 42 87  1  0
 43 88  1  0
 43 89  1  0
 43 90  1  0
 44 91  1  0
 44 92  1  0
 44 93  1  0
 45 46  3  0
 46 47  1  0
 47 52  1  0
 47 48  2  0
 48 49  1  0
 48 94  1  0
 49 50  2  0
 49 95  1  0
 50 51  1  0
 50 96  1  0
 51 52  2  0
 52 97  1  0
M  END
>  <i_m_Source_File_Index>  (9) 
9

>  <b_m_subgroup_collapsed>  (9) 
0

>  <r_exp_dg>  (9) 
-11.0612

>  <s_m_Source_File>  (9) 
hiv_prot_ekegren_ligands.sdf

>  <s_m_Source_Path>  (9) 
path\input_structures\original_structures\misc

>  <s_m_entry_id>  (9) 
19

>  <s_m_entry_name>  (9) 
hiv_prot_ekegren_ligands.9

>  <s_m_subgroup_title>  (9) 
misc->HIV1 protease->hiv_prot_ekegren_ligands

>  <s_m_subgroupid>  (9) 
misc->HIV1 protease->hiv_prot_ekegren_ligands

>  <experimental dG reference units>  (9) 
kcal/mol

>  <experimental dG reference field>  (9) 
r_exp_dg

>  <kJ/mol experimental dG>  (9) 
-46.2800608

>  <kcal/mol experimental dG>  (9) 
-11.0612

>  <AmberAM1BCCCache>  (9) 
gASVjgcAAAAAAABdlCiMFm51bXB5Ll9jb3JlLm11bHRpYXJyYXmUjAZzY2FsYXKUk5SMBW51bXB5lIwFZHR5cGWUk5SMAmY4lImIh5RSlChLA4wBPJROTk5K/////0r/////SwB0lGJDCHHIGxjdwvM/lIaUUpRoA2gJQwjy8EhYgwAeQJSGlFKUaANoCUMI8ggE3iR2HcCUhpRSlGgDaAlDCPvfsJXVehnAlIaUUpRoA2gJQwg1iTrSPFP4P5SGlFKUaANoCUMIUsYUFzKD9b+UhpRSlGgDaAlDCMdHd78pZPK/lIaUUpRoA2gJQwgCmkMvc1L5v5SGlFKUaANoCUMIv9JzSRcP97+UhpRSlGgDaAlDCNbZucyrxva/lIaUUpRoA2gJQwjPy3hBf0vuv5SGlFKUaANoCUMIpEz9+JsS5b+UhpRSlGgDaAlDCPcSDa359Pg/lIaUUpRoA2gJQwh4cqzx11AcwJSGlFKUaANoCUMIDIWcfxuI1r+UhpRSlGgDaAlDCBImRgOHsfG/lIaUUpRoA2gJQwgEzu/xXj/3v5SGlFKUaANoCUMIMajPNZzB+L+UhpRSlGgDaAlDCGG2WzzFMPi/lIaUUpRoA2gJQwgxqM81nMH4v5SGlFKUaANoCUMIBM7v8V4/97+UhpRSlGgDaAlDCG71XiirMhzAlIaUUpRoA2gJQwgnjEi8bir2P5SGlFKUaANoCUMIrCw/tHPuFsCUhpRSlGgDaAlDCLMlQwdynRLAlIaUUpRoA2gJQwhgZroyMdf/P5SGlFKUaANoCUMINegf1z3MG0CUhpRSlGgDaAlDCOq/YtfjRBvAlIaUUpRoA2gJQwhRd8AOTRTiP5SGlFKUaANoCUMI36CxZ1qM27+UhpRSlGgDaAlDCKHYjx17vfK/lIaUUpRoA2gJQwih2I8de73yv5SGlFKUaANoCUMIRByE8UMTF8CUhpRSlGgDaAlDCLJezz4tTiFAlIaUUpRoA2gJQwi87YNNfnYawJSGlFKUaANoCUMIH4egirpdFcCUhpRSlGgDaAlDCBStnghRhe+/lIaUUpRoA2gJQwgEzu/xXj/3v5SGlFKUaANoCUMIIBaNKBpf9L+UhpRSlGgDaAlDCI7rBTUb59E/lIaUUpRoA2gJQwgEzu/xXj/3v5SGlFKUaANoCUMIIBaNKBpf9L+UhpRSlGgDaAlDCNCJzynVV/o/lIaUUpRoA2gJQwih2I8de73yv5SGlFKUaANoCUMIDl1JSeeK8b+UhpRSlGgDaAlDCFExxB9+SfO/lIaUUpRoA2gJQwifNpQ1jAjxv5SGlFKUaANoCUMItYA77gwq67+UhpRSlGgDaAlDCMKlDBljagfAlIaUUpRoA2gJQwjrrQ38OOQSQJSGlFKUaANoCUMI+XP8f7NRH8CUhpRSlGgDaAlDCB7alA1lrhNAlIaUUpRoA2gJQwjYZSbM9UEPQJSGlFKUaANoCUMIhH6/2liV8D+UhpRSlGgDaAlDCEY108A0rPs/lIaUUpRoA2gJQwjuc2hIfyz5P5SGlFKUaANoCUMI13nNtSXw+D+UhpRSlGgDaAlDCKhrQa/8gPk/lIaUUpRoA2gJQwi4sBezDgDqP5SGlFKUaANoCUMIuLAXsw4A6j+UhpRSlGgDaAlDCDMieOdWeeU/lIaUUpRoA2gJQwiCkKdIzo0TQJSGlFKUaANoCUMI+XfnmGpD7D+UhpRSlGgDaAlDCPl355hqQ+w/lIaUUpRoA2gJQwjIyNMpDeX6P5SGlFKUaANoCUMI7nNoSH8s+T+UhpRSlGgDaAlDCDV8j+EB2Pg/lIaUUpRoA2gJQwjuc2hIfyz5P5SGlFKUaANoCUMIyMjTKQ3l+j+UhpRSlGgDaAlDCB9J6T8+2RNAlIaUUpRoA2gJQwhsTUOF7/XtP5SGlFKUaANoCUMIbE1Dhe/17T+UhpRSlGgDaAlDCNuMJ56msw1AlIaUUpRoA2gJQwgTmYP9dPHqP5SGlFKUaANoCUMIE5mD/XTx6j+UhpRSlGgDaAlDCEBzY0Gyc+w/lIaUUpRoA2gJQwhTGvdommDhP5SGlFKUaANoCUMIUxr3aJpg4T+UhpRSlGgDaAlDCFMa92iaYOE/lIaUUpRoA2gJQwhTGvdommDhP5SGlFKUaANoCUMIUxr3aJpg4T+UhpRSlGgDaAlDCFMa92iaYOE/lIaUUpRoA2gJQwhDGeKD6jQNQJSGlFKUaANoCUMIGUGdm4Ez+z+UhpRSlGgDaAlDCCXLlVXpzPo/lIaUUpRoA2gJQwgZQZ2bgTP7P5SGlFKUaANoCUMIJcuVVenM+j+UhpRSlGgDaAlDCGDoNYxMbuM/lIaUUpRoA2gJQwhg6DWMTG7jP5SGlFKUaANoCUMIYOg1jExu4z+UhpRSlGgDaAlDCFMa92iaYOE/lIaUUpRoA2gJQwhTGvdommDhP5SGlFKUaANoCUMIUxr3aJpg4T+UhpRSlGgDaAlDCAE6Vxjte/s/lIaUUpRoA2gJQwgYNPKqRrj7P5SGlFKUaANoCUMIazhwXNHr0j+UhpRSlGgDaAlDCE7jJzXbUNY/lIaUUpRlLg==

$$$$
17
     RDKit          3D

 98102  0  0  1  0  0  0  0  0999 V2000
   14.3070   22.9110    5.6430 C   0  0  1  0  0  0  0  0  0  0  0  0
   14.5790   21.3770    5.3860 C   0  0  0  0  0  0  0  0  0  0  0  0
   13.6330   20.5620    5.4030 O   0  0  0  0  0  0  0  0  0  0  0  0
   15.8330   20.9260    5.1890 N   0  0  0  0  0  0  0  0  0  0  0  0
   16.1290   19.4960    4.9900 C   0  0  1  0  0  0  0  0  0  0  0  0
   16.0890   18.9950    3.5740 C   0  0  0  0  0  0  0  0  0  0  0  0
   15.2500   19.4110    2.4890 C   0  0  0  0  0  0  0  0  0  0  0  0
   15.4250   18.7590    1.2180 C   0  0  0  0  0  0  0  0  0  0  0  0
   16.4120   17.7250    1.0620 C   0  0  0  0  0  0  0  0  0  0  0  0
   17.2390   17.3220    2.1630 C   0  0  0  0  0  0  0  0  0  0  0  0
   17.0540   17.9780    3.4120 C   0  0  0  0  0  0  0  0  0  0  0  0
   17.7990   17.7320    4.7040 C   0  0  0  0  0  0  0  0  0  0  0  0
   17.5230   19.0220    5.5170 C   0  0  1  0  0  0  0  0  0  0  0  0
   18.5730   19.9140    5.1680 O   0  0  0  0  0  0  0  0  0  0  0  0
   14.1110   23.1820    7.1760 C   0  0  0  0  0  0  0  0  0  0  0  0
   14.9730   22.3470    8.1180 C   0  0  0  0  0  0  0  0  0  0  0  0
   14.3750   21.2800    8.8770 C   0  0  0  0  0  0  0  0  0  0  0  0
   15.1730   20.4770    9.7450 C   0  0  0  0  0  0  0  0  0  0  0  0
   16.5770   20.7350    9.8590 C   0  0  0  0  0  0  0  0  0  0  0  0
   17.1780   21.7980    9.1060 C   0  0  0  0  0  0  0  0  0  0  0  0
   16.3810   22.6040    8.2360 C   0  0  0  0  0  0  0  0  0  0  0  0
   15.4120   23.7170    5.2220 O   0  0  0  0  0  0  0  0  0  0  0  0
   13.0310   22.9480    4.7450 C   0  0  0  0  0  0  0  0  0  0  0  0
   12.0780   23.9550    4.3850 N   0  0  0  0  0  0  0  0  0  0  0  0
   11.4140   24.7110    5.3210 N   0  0  0  0  0  0  0  0  0  0  0  0
   11.5480   23.4280    3.1080 C   0  0  0  0  0  0  0  0  0  0  0  0
   10.5400   24.4360    6.3090 C   0  0  0  0  0  0  0  0  0  0  0  0
   10.3620   23.2950    6.7660 O   0  0  0  0  0  0  0  0  0  0  0  0
    9.7620   25.6600    6.8290 C   0  0  2  0  0  0  0  0  0  0  0  0
    9.6900   25.9050    8.3760 C   0  0  0  0  0  0  0  0  0  0  0  0
    8.9260   27.2100    8.7310 C   0  0  0  0  0  0  0  0  0  0  0  0
   11.0770   26.0020    9.0310 C   0  0  0  0  0  0  0  0  0  0  0  0
    8.3920   25.5860    6.2930 N   0  0  0  0  0  0  0  0  0  0  0  0
    7.8210   26.4840    5.4740 C   0  0  0  0  0  0  0  0  0  0  0  0
    8.4670   27.4840    5.1070 O   0  0  0  0  0  0  0  0  0  0  0  0
    6.5440   26.2540    5.0890 O   0  0  0  0  0  0  0  0  0  0  0  0
   10.0340   23.4700    2.9970 C   0  0  0  0  0  0  0  0  0  0  0  0
    9.4220   24.4510    2.1580 C   0  0  0  0  0  0  0  0  0  0  0  0
    8.0030   24.5047    2.0542 C   0  0  0  0  0  0  0  0  0  0  0  0
    7.1630   23.5932    2.7575 C   0  0  0  0  0  0  0  0  0  0  0  0
    9.2150   22.5500    3.7300 C   0  0  0  0  0  0  0  0  0  0  0  0
    7.7946   22.6295    3.6110 C   0  0  0  0  0  0  0  0  0  0  0  0
    5.8550   27.1580    4.2320 C   0  0  0  0  0  0  0  0  0  0  0  0
    8.9130   24.7670    9.0460 C   0  0  0  0  0  0  0  0  0  0  0  0
   16.6066   21.5751    5.1743 H   0  0  0  0  0  0  0  0  0  0  0  0
   15.3750   18.9372    5.5443 H   0  0  0  0  0  0  0  0  0  0  0  0
   14.5171   20.1896    2.6409 H   0  0  0  0  0  0  0  0  0  0  0  0
   14.8134   19.0457    0.3753 H   0  0  0  0  0  0  0  0  0  0  0  0
   16.5391   17.2396    0.1056 H   0  0  0  0  0  0  0  0  0  0  0  0
   17.9744   16.5425    2.0290 H   0  0  0  0  0  0  0  0  0  0  0  0
   18.8664   17.6599    4.4955 H   0  0  0  0  0  0  0  0  0  0  0  0
   17.3544   16.8804    5.2189 H   0  0  0  0  0  0  0  0  0  0  0  0
   17.5021   18.8251    6.5889 H   0  0  0  0  0  0  0  0  0  0  0  0
   18.3959   20.7798    5.5430 H   0  0  0  0  0  0  0  0  0  0  0  0
   13.0607   23.0457    7.4339 H   0  0  0  0  0  0  0  0  0  0  0  0
   14.2782   24.2399    7.3784 H   0  0  0  0  0  0  0  0  0  0  0  0
   13.3165   21.0836    8.7911 H   0  0  0  0  0  0  0  0  0  0  0  0
   14.7178   19.6787   10.3125 H   0  0  0  0  0  0  0  0  0  0  0  0
   17.1861   20.1287   10.5130 H   0  0  0  0  0  0  0  0  0  0  0  0
   18.2367   21.9916    9.1955 H   0  0  0  0  0  0  0  0  0  0  0  0
   16.8334   23.4038    7.6685 H   0  0  0  0  0  0  0  0  0  0  0  0
   15.2169   24.6417    5.3908 H   0  0  0  0  0  0  0  0  0  0  0  0
   12.4600   22.0496    4.9794 H   0  0  0  0  0  0  0  0  0  0  0  0
   13.2812   22.4150    3.8277 H   0  0  0  0  0  0  0  0  0  0  0  0
   11.7063   25.6636    5.1560 H   0  0  0  0  0  0  0  0  0  0  0  0
   11.8920   22.4030    2.9697 H   0  0  0  0  0  0  0  0  0  0  0  0
   11.9865   23.9827    2.2785 H   0  0  0  0  0  0  0  0  0  0  0  0
   10.2275   26.5421    6.3894 H   0  0  0  0  0  0  0  0  0  0  0  0
    8.9032   27.3353    9.8135 H   0  0  0  0  0  0  0  0  0  0  0  0
    9.4318   28.0625    8.2777 H   0  0  0  0  0  0  0  0  0  0  0  0
    7.9061   27.1493    8.3513 H   0  0  0  0  0  0  0  0  0  0  0  0
   10.9627   26.1719   10.1016 H   0  0  0  0  0  0  0  0  0  0  0  0
   11.6225   25.0726    8.8673 H   0  0  0  0  0  0  0  0  0  0  0  0
   11.6308   26.8304    8.5893 H   0  0  0  0  0  0  0  0  0  0  0  0
    7.8722   24.7735    6.5926 H   0  0  0  0  0  0  0  0  0  0  0  0
   10.0354   25.1448    1.6023 H   0  0  0  0  0  0  0  0  0  0  0  0
    7.5397   25.2579    1.4123 H   0  0  0  0  0  0  0  0  0  0  0  0
    9.6737   21.8021    4.3597 H   0  0  0  0  0  0  0  0  0  0  0  0
    7.1834   21.9226    4.1933 H   0  0  0  0  0  0  0  0  0  0  0  0
    4.8467   26.7874    4.0474 H   0  0  0  0  0  0  0  0  0  0  0  0
    5.8002   28.1382    4.7056 H   0  0  0  0  0  0  0  0  0  0  0  0
    6.3898   27.2416    3.2859 H   0  0  0  0  0  0  0  0  0  0  0  0
    8.8659   24.9421   10.1208 H   0  0  0  0  0  0  0  0  0  0  0  0
    7.9022   24.7283    8.6401 H   0  0  0  0  0  0  0  0  0  0  0  0
    9.4174   23.8199    8.8544 H   0  0  0  0  0  0  0  0  0  0  0  0
    5.6673   23.6484    2.5954 C   0  0  0  0  0  0  0  0  0  0  0  0
    4.6928   22.9223    3.3671 C   0  0  0  0  0  0  0  0  0  0  0  0
    3.4630   23.2222    2.9998 N   0  0  0  0  0  0  0  0  0  0  0  0
    3.5801   24.1120    1.9389 O   0  0  0  0  0  0  0  0  0  0  0  0
    4.8903   24.3388    1.6746 C   0  0  0  0  0  0  0  0  0  0  0  0
    4.8143   21.8996    4.4619 C   0  0  0  0  0  0  0  0  0  0  0  0
    5.0503   25.2336    0.4733 C   0  0  0  0  0  0  0  0  0  0  0  0
    5.0563   26.3007    0.7189 H   0  0  0  0  0  0  0  0  0  0  0  0
    5.9032   24.9849   -0.1493 H   0  0  0  0  0  0  0  0  0  0  0  0
    4.1880   25.0996   -0.1803 H   0  0  0  0  0  0  0  0  0  0  0  0
    3.8721   21.3730    4.6187 H   0  0  0  0  0  0  0  0  0  0  0  0
    5.5568   21.1416    4.2149 H   0  0  0  0  0  0  0  0  0  0  0  0
    5.0780   22.3657    5.4106 H   0  0  0  0  0  0  0  0  0  0  0  0
  1  2  1  0
  1 15  1  0
  1 22  1  6
  1 23  1  0
  2  3  2  0
  2  4  1  0
  4  5  1  0
  4 45  1  0
  5  6  1  0
  5 13  1  0
  5 46  1  1
  6  7  2  0
  6 11  1  0
  7  8  1  0
  7 47  1  0
  8  9  2  0
  8 48  1  0
  9 10  1  0
  9 49  1  0
 10 11  2  0
 10 50  1  0
 11 12  1  0
 12 13  1  0
 12 51  1  0
 12 52  1  0
 13 14  1  0
 13 53  1  1
 14 54  1  0
 15 16  1  0
 15 55  1  0
 15 56  1  0
 16 17  2  0
 16 21  1  0
 17 18  1  0
 17 57  1  0
 18 19  2  0
 18 58  1  0
 19 20  1  0
 19 59  1  0
 20 21  2  0
 20 60  1  0
 21 61  1  0
 22 62  1  0
 23 24  1  0
 23 63  1  0
 23 64  1  0
 24 25  1  0
 24 26  1  0
 25 27  1  0
 25 65  1  0
 26 37  1  0
 26 66  1  0
 26 67  1  0
 27 28  2  0
 27 29  1  0
 29 30  1  0
 29 33  1  0
 29 68  1  6
 30 31  1  0
 30 32  1  0
 30 44  1  0
 31 69  1  0
 31 70  1  0
 31 71  1  0
 32 72  1  0
 32 73  1  0
 32 74  1  0
 33 34  1  0
 33 75  1  0
 34 35  2  0
 34 36  1  0
 36 43  1  0
 37 38  2  0
 37 41  1  0
 38 39  1  0
 38 76  1  0
 39 40  2  0
 39 77  1  0
 40 42  1  0
 40 86  1  0
 41 42  2  0
 41 78  1  0
 42 79  1  0
 43 80  1  0
 43 81  1  0
 43 82  1  0
 44 83  1  0
 44 84  1  0
 44 85  1  0
 86 87  1  0
 86 90  2  0
 87 88  2  0
 87 91  1  0
 88 89  1  0
 89 90  1  0
 90 92  1  0
 91 96  1  0
 91 97  1  0
 91 98  1  0
 92 93  1  0
 92 94  1  0
 92 95  1  0
M  END
>  <i_m_Source_File_Index>  (10) 
10

>  <b_m_subgroup_collapsed>  (10) 
0

>  <r_exp_dg>  (10) 
-11.4873

>  <s_m_Source_File>  (10) 
hiv_prot_ekegren_ligands.sdf

>  <s_m_Source_Path>  (10) 
path\input_structures\original_structures\misc

>  <s_m_entry_id>  (10) 
20

>  <s_m_entry_name>  (10) 
hiv_prot_ekegren_ligands.10

>  <s_m_subgroup_title>  (10) 
misc->HIV1 protease->hiv_prot_ekegren_ligands

>  <s_m_subgroupid>  (10) 
misc->HIV1 protease->hiv_prot_ekegren_ligands

>  <experimental dG reference units>  (10) 
kcal/mol

>  <experimental dG reference field>  (10) 
r_exp_dg

>  <kJ/mol experimental dG>  (10) 
-48.0628632

>  <kcal/mol experimental dG>  (10) 
-11.4873

>  <AmberAM1BCCCache>  (10) 
gASVoQcAAAAAAABdlCiMFm51bXB5Ll9jb3JlLm11bHRpYXJyYXmUjAZzY2FsYXKUk5SMBW51bXB5lIwFZHR5cGWUk5SMAmY4lImIh5RSlChLA4wBPJROTk5K/////0r/////SwB0lGJDCL60ixSGuPA/lIaUUpRoA2gJQwh3Iopmfp8dQJSGlFKUaANoCUMI13AopqjTHMCUhpRSlGgDaAlDCKsB+Gq3FxnAlIaUUpRoA2gJQwjFPHq0QYz3P5SGlFKUaANoCUMIGjFkZmEU9b+UhpRSlGgDaAlDCOun3Un6YfK/lIaUUpRoA2gJQwjA+V6ySVT5v5SGlFKUaANoCUMIcDZ9FbLo9r+UhpRSlGgDaAlDCOQ/hcQiiPa/lIaUUpRoA2gJQwg4hGnEl5fuv5SGlFKUaANoCUMIqJrTygCd6b+UhpRSlGgDaAlDCP3c/y6qSPc/lIaUUpRoA2gJQwjtT434+RgcwJSGlFKUaANoCUMID0rBGXj63b+UhpRSlGgDaAlDCLyLxvMDd/G/lIaUUpRoA2gJQwhnK0lJWVn3v5SGlFKUaANoCUMIifr0wD1M+b+UhpRSlGgDaAlDCKQbkSVI+ve/lIaUUpRoA2gJQwiJ+vTAPUz5v5SGlFKUaANoCUMIZytJSVlZ97+UhpRSlGgDaAlDCDtJknxfXRzAlIaUUpRoA2gJQwj90DSdAc75P5SGlFKUaANoCUMIBpHAOi1wFsCUhpRSlGgDaAlDCOUyTmGKCxPAlIaUUpRoA2gJQwgoZiE8ZxQBQJSGlFKUaANoCUMIeC81V7kaHUCUhpRSlGgDaAlDCHikiWGaxBrAlIaUUpRoA2gJQwh+2lGKkq7gP5SGlFKUaANoCUMIxf6CD6rl3L+UhpRSlGgDaAlDCCo5Qa9Ft/K/lIaUUpRoA2gJQwgqOUGvRbfyv5SGlFKUaANoCUMIzCAdq9/ZF8CUhpRSlGgDaAlDCHeTGDxnRiFAlIaUUpRoA2gJQwgJrrY4WmgbwJSGlFKUaANoCUMITmkF6ZT1FMCUhpRSlGgDaAlDCNuD6mF7x/G/lIaUUpRoA2gJQwg8UWkFHNf1v5SGlFKUaANoCUMIdidbAJWB97+UhpRSlGgDaAlDCCUS24y/zJW/lIaUUpRoA2gJQwg8UWkFHNf1v5SGlFKUaANoCUMIdidbAJWB97+UhpRSlGgDaAlDCDAvgwWxIfo/lIaUUpRoA2gJQwgqOUGvRbfyv5SGlFKUaANoCUMI3knk+tx1DkCUhpRSlGgDaAlDCJP2wW/jLfI/lIaUUpRoA2gJQwg96V2qM+H6P5SGlFKUaANoCUMIyxMCvq4u+T+UhpRSlGgDaAlDCF8VLtuWHvk/lIaUUpRoA2gJQwj5BzjjYaf5P5SGlFKUaANoCUMIC/2qh66D6T+UhpRSlGgDaAlDCAv9qoeug+k/lIaUUpRoA2gJQwjE59j98FzqP5SGlFKUaANoCUMI2z/MLupCE0CUhpRSlGgDaAlDCPfM7A2Hbus/lIaUUpRoA2gJQwj3zOwNh27rP5SGlFKUaANoCUMIDNvRowpy+z+UhpRSlGgDaAlDCMMVeeKQGvk/lIaUUpRoA2gJQwgJHqB7E8b4P5SGlFKUaANoCUMIwxV54pAa+T+UhpRSlGgDaAlDCAzb0aMKcvs/lIaUUpRoA2gJQwi1L8kD3+cTQJSGlFKUaANoCUMIL4mIJ4oi7j+UhpRSlGgDaAlDCC+JiCeKIu4/lIaUUpRoA2gJQwjhfZC9yGIMQJSGlFKUaANoCUMIAwzNnMvq6D+UhpRSlGgDaAlDCAMMzZzL6ug/lIaUUpRoA2gJQwi7f4B4GYPuP5SGlFKUaANoCUMIVhWAvo5G4T+UhpRSlGgDaAlDCFYVgL6ORuE/lIaUUpRoA2gJQwhWFYC+jkbhP5SGlFKUaANoCUMIVhWAvo5G4T+UhpRSlGgDaAlDCFYVgL6ORuE/lIaUUpRoA2gJQwhWFYC+jkbhP5SGlFKUaANoCUMIcUsQGMVlDkCUhpRSlGgDaAlDCMbfVfvCQfs/lIaUUpRoA2gJQwgvB6LUba/5P5SGlFKUaANoCUMIxt9V+8JB+z+UhpRSlGgDaAlDCC8HotRtr/k/lIaUUpRoA2gJQwiTOukxECnkP5SGlFKUaANoCUMIkzrpMRAp5D+UhpRSlGgDaAlDCJM66TEQKeQ/lIaUUpRoA2gJQwhWFYC+jkbhP5SGlFKUaANoCUMIVhWAvo5G4T+UhpRSlGgDaAlDCFYVgL6ORuE/lIaUUpRoA2gJQwiZAQ4h978JwJSGlFKUaANoCUMIg/bIpyq+D0CUhpRSlGgDaAlDCAPgWaTePhHAlIaUUpRoA2gJQwgs3Bz2xmz2v5SGlFKUaANoCUMIFLMdlqJDCkCUhpRSlGgDaAlDCIdZ2Tfhl/m/lIaUUpRoA2gJQwgCOmnwvtn6v5SGlFKUaANoCUMIekUJjV6G6T+UhpRSlGgDaAlDCHpFCY1ehuk/lIaUUpRoA2gJQwh6RQmNXobpP5SGlFKUaANoCUMIJJFJBeSB5j+UhpRSlGgDaAlDCCSRSQXkgeY/lIaUUpRoA2gJQwgkkUkF5IHmP5SGlFKUZS4=

$$$$
18
     RDKit          3D

 94 98  0  0  1  0  0  0  0  0999 V2000
   14.3070   22.9110    5.6430 C   0  0  1  0  0  0  0  0  0  0  0  0
   14.5790   21.3770    5.3860 C   0  0  0  0  0  0  0  0  0  0  0  0
   13.6330   20.5620    5.4030 O   0  0  0  0  0  0  0  0  0  0  0  0
   15.8330   20.9260    5.1890 N   0  0  0  0  0  0  0  0  0  0  0  0
   16.1290   19.4960    4.9900 C   0  0  1  0  0  0  0  0  0  0  0  0
   16.0890   18.9950    3.5740 C   0  0  0  0  0  0  0  0  0  0  0  0
   15.2500   19.4110    2.4890 C   0  0  0  0  0  0  0  0  0  0  0  0
   15.4250   18.7590    1.2180 C   0  0  0  0  0  0  0  0  0  0  0  0
   16.4120   17.7250    1.0620 C   0  0  0  0  0  0  0  0  0  0  0  0
   17.2390   17.3220    2.1630 C   0  0  0  0  0  0  0  0  0  0  0  0
   17.0540   17.9780    3.4120 C   0  0  0  0  0  0  0  0  0  0  0  0
   17.7990   17.7320    4.7040 C   0  0  0  0  0  0  0  0  0  0  0  0
   17.5230   19.0220    5.5170 C   0  0  1  0  0  0  0  0  0  0  0  0
   18.5730   19.9140    5.1680 O   0  0  0  0  0  0  0  0  0  0  0  0
   14.1110   23.1820    7.1760 C   0  0  0  0  0  0  0  0  0  0  0  0
   14.9730   22.3470    8.1180 C   0  0  0  0  0  0  0  0  0  0  0  0
   16.3810   22.6040    8.2360 C   0  0  0  0  0  0  0  0  0  0  0  0
   17.1780   21.7980    9.1060 C   0  0  0  0  0  0  0  0  0  0  0  0
   16.5770   20.7350    9.8590 C   0  0  0  0  0  0  0  0  0  0  0  0
   15.1730   20.4770    9.7450 C   0  0  0  0  0  0  0  0  0  0  0  0
   14.3750   21.2800    8.8770 C   0  0  0  0  0  0  0  0  0  0  0  0
   15.4120   23.7170    5.2220 O   0  0  0  0  0  0  0  0  0  0  0  0
   13.0310   22.9480    4.7450 C   0  0  0  0  0  0  0  0  0  0  0  0
   12.0780   23.9550    4.3850 N   0  0  0  0  0  0  0  0  0  0  0  0
   11.4140   24.7110    5.3210 N   0  0  0  0  0  0  0  0  0  0  0  0
   11.5480   23.4280    3.1080 C   0  0  0  0  0  0  0  0  0  0  0  0
   10.5400   24.4360    6.3090 C   0  0  0  0  0  0  0  0  0  0  0  0
   10.3620   23.2950    6.7660 O   0  0  0  0  0  0  0  0  0  0  0  0
    9.7620   25.6600    6.8290 C   0  0  2  0  0  0  0  0  0  0  0  0
    9.6900   25.9050    8.3760 C   0  0  0  0  0  0  0  0  0  0  0  0
    8.9260   27.2100    8.7310 C   0  0  0  0  0  0  0  0  0  0  0  0
   11.0770   26.0020    9.0310 C   0  0  0  0  0  0  0  0  0  0  0  0
    8.3920   25.5860    6.2930 N   0  0  0  0  0  0  0  0  0  0  0  0
    7.8210   26.4840    5.4740 C   0  0  0  0  0  0  0  0  0  0  0  0
    8.4670   27.4840    5.1070 O   0  0  0  0  0  0  0  0  0  0  0  0
    6.5440   26.2540    5.0890 O   0  0  0  0  0  0  0  0  0  0  0  0
   10.0340   23.4700    2.9970 C   0  0  0  0  0  0  0  0  0  0  0  0
    9.4220   24.4510    2.1580 C   0  0  0  0  0  0  0  0  0  0  0  0
    7.9990   24.5180    2.0510 C   0  0  0  0  0  0  0  0  0  0  0  0
    7.1660   23.6030    2.7910 C   0  0  0  0  0  0  0  0  0  0  0  0
    9.2150   22.5500    3.7300 C   0  0  0  0  0  0  0  0  0  0  0  0
    7.7910   22.6170    3.6320 C   0  0  0  0  0  0  0  0  0  0  0  0
    5.8550   27.1580    4.2320 C   0  0  0  0  0  0  0  0  0  0  0  0
    8.9130   24.7670    9.0460 C   0  0  0  0  0  0  0  0  0  0  0  0
    3.5825   22.8661    3.3083 C   0  0  0  0  0  0  0  0  0  0  0  0
    4.9391   22.7850    3.4132 N   0  0  0  0  0  0  0  0  0  0  0  0
    5.6714   23.6770    2.6881 C   0  0  0  0  0  0  0  0  0  0  0  0
    5.0577   24.6335    1.8720 C   0  0  0  0  0  0  0  0  0  0  0  0
    3.7012   24.7146    1.7670 N   0  0  0  0  0  0  0  0  0  0  0  0
    2.9689   23.8226    2.4922 C   0  0  0  0  0  0  0  0  0  0  0  0
   16.5854   21.5952    5.1896 H   0  0  0  0  0  0  0  0  0  0  0  0
   15.3918   18.8953    5.5279 H   0  0  0  0  0  0  0  0  0  0  0  0
   14.5049   20.1805    2.6247 H   0  0  0  0  0  0  0  0  0  0  0  0
   14.8078   19.0448    0.3788 H   0  0  0  0  0  0  0  0  0  0  0  0
   16.5317   17.2436    0.1025 H   0  0  0  0  0  0  0  0  0  0  0  0
   17.9815   16.5463    2.0453 H   0  0  0  0  0  0  0  0  0  0  0  0
   18.8605   17.5424    4.5391 H   0  0  0  0  0  0  0  0  0  0  0  0
   17.3657   16.8604    5.1953 H   0  0  0  0  0  0  0  0  0  0  0  0
   17.5366   18.8542    6.5951 H   0  0  0  0  0  0  0  0  0  0  0  0
   18.3959   20.7798    5.5430 H   0  0  0  0  0  0  0  0  0  0  0  0
   13.0671   22.9881    7.4260 H   0  0  0  0  0  0  0  0  0  0  0  0
   14.2632   24.2387    7.3965 H   0  0  0  0  0  0  0  0  0  0  0  0
   16.8331   23.4064    7.6697 H   0  0  0  0  0  0  0  0  0  0  0  0
   18.2361   21.9938    9.2020 H   0  0  0  0  0  0  0  0  0  0  0  0
   17.1831   20.1310   10.5186 H   0  0  0  0  0  0  0  0  0  0  0  0
   14.7175   19.6777   10.3114 H   0  0  0  0  0  0  0  0  0  0  0  0
   13.3171   21.0749    8.7853 H   0  0  0  0  0  0  0  0  0  0  0  0
   15.2169   24.6417    5.3908 H   0  0  0  0  0  0  0  0  0  0  0  0
   12.3076   22.2253    5.1287 H   0  0  0  0  0  0  0  0  0  0  0  0
   13.4517   22.5856    3.7999 H   0  0  0  0  0  0  0  0  0  0  0  0
   11.4279   25.6976    5.1075 H   0  0  0  0  0  0  0  0  0  0  0  0
   11.7674   22.3726    2.9239 H   0  0  0  0  0  0  0  0  0  0  0  0
   11.9965   23.9847    2.2842 H   0  0  0  0  0  0  0  0  0  0  0  0
   10.2663   26.5388    6.4227 H   0  0  0  0  0  0  0  0  0  0  0  0
    9.4318   28.0625    8.2777 H   0  0  0  0  0  0  0  0  0  0  0  0
    7.9061   27.1493    8.3513 H   0  0  0  0  0  0  0  0  0  0  0  0
    8.9032   27.3353    9.8135 H   0  0  0  0  0  0  0  0  0  0  0  0
   11.6225   25.0726    8.8673 H   0  0  0  0  0  0  0  0  0  0  0  0
   11.6308   26.8304    8.5893 H   0  0  0  0  0  0  0  0  0  0  0  0
   10.9627   26.1719   10.1016 H   0  0  0  0  0  0  0  0  0  0  0  0
    7.8565   24.7551    6.4895 H   0  0  0  0  0  0  0  0  0  0  0  0
   10.0313   25.1514    1.6056 H   0  0  0  0  0  0  0  0  0  0  0  0
    7.5441   25.2643    1.4163 H   0  0  0  0  0  0  0  0  0  0  0  0
    9.6757   21.8179    4.3793 H   0  0  0  0  0  0  0  0  0  0  0  0
    7.1839   21.9250    4.1973 H   0  0  0  0  0  0  0  0  0  0  0  0
    5.8002   28.1382    4.7056 H   0  0  0  0  0  0  0  0  0  0  0  0
    6.3898   27.2416    3.2859 H   0  0  0  0  0  0  0  0  0  0  0  0
    4.8467   26.7874    4.0474 H   0  0  0  0  0  0  0  0  0  0  0  0
    9.4174   23.8199    8.8544 H   0  0  0  0  0  0  0  0  0  0  0  0
    8.8659   24.9421   10.1208 H   0  0  0  0  0  0  0  0  0  0  0  0
    7.9022   24.7283    8.6401 H   0  0  0  0  0  0  0  0  0  0  0  0
    2.9889   22.1633    3.8791 H   0  0  0  0  0  0  0  0  0  0  0  0
    5.6513   25.3363    1.3012 H   0  0  0  0  0  0  0  0  0  0  0  0
    1.8902   23.8760    2.4179 H   0  0  0  0  0  0  0  0  0  0  0  0
  1  2  1  0
  1 15  1  0
  1 22  1  6
  1 23  1  0
  2  3  2  0
  2  4  1  0
  4  5  1  0
  4 51  1  0
  5  6  1  0
  5 13  1  0
  5 52  1  1
  6  7  2  0
  6 11  1  0
  7  8  1  0
  7 53  1  0
  8  9  2  0
  8 54  1  0
  9 10  1  0
  9 55  1  0
 10 11  2  0
 10 56  1  0
 11 12  1  0
 12 13  1  0
 12 57  1  0
 12 58  1  0
 13 14  1  0
 13 59  1  1
 14 60  1  0
 15 16  1  0
 15 61  1  0
 15 62  1  0
 16 17  2  0
 16 21  1  0
 17 18  1  0
 17 63  1  0
 18 19  2  0
 18 64  1  0
 19 20  1  0
 19 65  1  0
 20 21  2  0
 20 66  1  0
 21 67  1  0
 22 68  1  0
 23 24  1  0
 23 69  1  0
 23 70  1  0
 24 25  1  0
 24 26  1  0
 25 27  1  0
 25 71  1  0
 26 37  1  0
 26 72  1  0
 26 73  1  0
 27 28  2  0
 27 29  1  0
 29 30  1  0
 29 33  1  0
 29 74  1  6
 30 31  1  0
 30 32  1  0
 30 44  1  0
 31 75  1  0
 31 76  1  0
 31 77  1  0
 32 78  1  0
 32 79  1  0
 32 80  1  0
 33 34  1  0
 33 81  1  0
 34 35  2  0
 34 36  1  0
 36 43  1  0
 37 38  2  0
 37 41  1  0
 38 39  1  0
 38 82  1  0
 39 40  2  0
 39 83  1  0
 40 42  1  0
 40 47  1  0
 41 42  2  0
 41 84  1  0
 42 85  1  0
 43 86  1  0
 43 87  1  0
 43 88  1  0
 44 89  1  0
 44 90  1  0
 44 91  1  0
 45 46  2  0
 45 50  1  0
 45 92  1  0
 46 47  1  0
 47 48  2  0
 48 49  1  0
 48 93  1  0
 49 50  2  0
 50 94  1  0
M  END
>  <i_m_Source_File_Index>  (11) 
11

>  <b_m_subgroup_collapsed>  (11) 
0

>  <r_exp_dg>  (11) 
-11.8386

>  <s_m_Source_File>  (11) 
hiv_prot_ekegren_ligands.sdf

>  <s_m_Source_Path>  (11) 
path\input_structures\original_structures\misc

>  <s_m_entry_id>  (11) 
21

>  <s_m_entry_name>  (11) 
hiv_prot_ekegren_ligands.11

>  <s_m_subgroup_title>  (11) 
misc->HIV1 protease->hiv_prot_ekegren_ligands

>  <s_m_subgroupid>  (11) 
misc->HIV1 protease->hiv_prot_ekegren_ligands

>  <experimental dG reference units>  (11) 
kcal/mol

>  <experimental dG reference field>  (11) 
r_exp_dg

>  <kJ/mol experimental dG>  (11) 
-49.5327024

>  <kcal/mol experimental dG>  (11) 
-11.8386

>  <AmberAM1BCCCache>  (11) 
gASVVQcAAAAAAABdlCiMFm51bXB5Ll9jb3JlLm11bHRpYXJyYXmUjAZzY2FsYXKUk5SMBW51bXB5lIwFZHR5cGWUk5SMAmY4lImIh5RSlChLA4wBPJROTk5K/////0r/////SwB0lGJDCDW4JdWJjvI/lIaUUpRoA2gJQwj499Hn7sQdQJSGlFKUaANoCUMIv/iYfvMJHcCUhpRSlGgDaAlDCFgg5g76ahnAlIaUUpRoA2gJQwhKIBCN5pL2P5SGlFKUaANoCUMIvfFBUemh9b+UhpRSlGgDaAlDCLXkTcdrEfK/lIaUUpRoA2gJQwhmM3f16iP5v5SGlFKUaANoCUMIyTLinVIf97+UhpRSlGgDaAlDCNxwK2dHsPa/lIaUUpRoA2gJQwhfRARykDvvv5SGlFKUaANoCUMI1MLG/dAa5r+UhpRSlGgDaAlDCOrpoZ4evvg/lIaUUpRoA2gJQwis9vwxwhkcwJSGlFKUaANoCUMIvJP1nMBP27+UhpRSlGgDaAlDCOPYg+weivK/lIaUUpRoA2gJQwilw/r7o3j3v5SGlFKUaANoCUMI2zx/pFvD+L+UhpRSlGgDaAlDCP7vFH2lvve/lIaUUpRoA2gJQwjbPH+kW8P4v5SGlFKUaANoCUMIpcP6+6N497+UhpRSlGgDaAlDCOaJ17vvWhzAlIaUUpRoA2gJQwh5qZapTUX5P5SGlFKUaANoCUMI7xgxE3imFsCUhpRSlGgDaAlDCPZeMv0B1hLAlIaUUpRoA2gJQwhXBkze9cb/P5SGlFKUaANoCUMIlYoXGoQBHECUhpRSlGgDaAlDCMYK7qWRTBvAlIaUUpRoA2gJQwhjM3b4vxXhP5SGlFKUaANoCUMI8f/OVD0f3b+UhpRSlGgDaAlDCGtudJRRqvK/lIaUUpRoA2gJQwhrbnSUUaryv5SGlFKUaANoCUMInnFlFXsyF8CUhpRSlGgDaAlDCN1mTqYwQiFAlIaUUpRoA2gJQwiG5RmoJL4awJSGlFKUaANoCUMItNavsCA1FcCUhpRSlGgDaAlDCITAlgR6Xe6/lIaUUpRoA2gJQwhUHC/+pgT4v5SGlFKUaANoCUMIUvKNDz+R87+UhpRSlGgDaAlDCBBY/zQCw/u/lIaUUpRoA2gJQwhUHC/+pgT4v5SGlFKUaANoCUMIUvKNDz+R87+UhpRSlGgDaAlDCPQqQuuHO/o/lIaUUpRoA2gJQwhrbnSUUaryv5SGlFKUaANoCUMIS7z7ADPiCkCUhpRSlGgDaAlDCO3szqOmgh3AlIaUUpRoA2gJQwj/9jvl44gQQJSGlFKUaANoCUMIsFC3oE4XC0CUhpRSlGgDaAlDCDAfTpJOjB3AlIaUUpRoA2gJQwhWaEtW6CUKQJSGlFKUaANoCUMIMyMFo6HyDkCUhpRSlGgDaAlDCA6nQkvsMvE/lIaUUpRoA2gJQwiB0OAUQcz7P5SGlFKUaANoCUMIOHcXu6U7+T+UhpRSlGgDaAlDCK2AH2oW2/g/lIaUUpRoA2gJQwh9cpNj7Wv5P5SGlFKUaANoCUMI5CK6+D/p6T+UhpRSlGgDaAlDCOQiuvg/6ek/lIaUUpRoA2gJQwhHCM+/Me7oP5SGlFKUaANoCUMI8hZAzUJYE0CUhpRSlGgDaAlDCCqzhpg7U+w/lIaUUpRoA2gJQwgqs4aYO1PsP5SGlFKUaANoCUMID+EuR0Yj+z+UhpRSlGgDaAlDCCdGeeLrJfk/lIaUUpRoA2gJQwjtsp5YvuT4P5SGlFKUaANoCUMIJ0Z54usl+T+UhpRSlGgDaAlDCA/hLkdGI/s/lIaUUpRoA2gJQwjQcFXlM9gTQJSGlFKUaANoCUMIeCam00za7T+UhpRSlGgDaAlDCHgmptNM2u0/lIaUUpRoA2gJQwjqeOIhMJINQJSGlFKUaANoCUMIKQTgvxEj6z+UhpRSlGgDaAlDCCkE4L8RI+s/lIaUUpRoA2gJQwhFaXP0+TrtP5SGlFKUaANoCUMIhDmG+JRr4T+UhpRSlGgDaAlDCIQ5hviUa+E/lIaUUpRoA2gJQwiEOYb4lGvhP5SGlFKUaANoCUMIhDmG+JRr4T+UhpRSlGgDaAlDCIQ5hviUa+E/lIaUUpRoA2gJQwiEOYb4lGvhP5SGlFKUaANoCUMISHukTQx6DUCUhpRSlGgDaAlDCJnXJpjVg/s/lIaUUpRoA2gJQwiRRS0kljb7P5SGlFKUaANoCUMImdcmmNWD+z+UhpRSlGgDaAlDCJFFLSSWNvs/lIaUUpRoA2gJQwj66IL2G8DjP5SGlFKUaANoCUMI+uiC9hvA4z+UhpRSlGgDaAlDCProgvYbwOM/lIaUUpRoA2gJQwiEOYb4lGvhP5SGlFKUaANoCUMIhDmG+JRr4T+UhpRSlGgDaAlDCIQ5hviUa+E/lIaUUpRoA2gJQwheLZVMvj/aP5SGlFKUaANoCUMIDGxzbUvV2z+UhpRSlGgDaAlDCGe/jsD9jNo/lIaUUpRlLg==

$$$$
19
     RDKit          3D

 99104  0  0  1  0  0  0  0  0999 V2000
   14.3070   22.9110    5.6430 C   0  0  1  0  0  0  0  0  0  0  0  0
   14.5790   21.3770    5.3860 C   0  0  0  0  0  0  0  0  0  0  0  0
   13.6330   20.5620    5.4030 O   0  0  0  0  0  0  0  0  0  0  0  0
   15.8330   20.9260    5.1890 N   0  0  0  0  0  0  0  0  0  0  0  0
   16.1290   19.4960    4.9900 C   0  0  1  0  0  0  0  0  0  0  0  0
   16.0890   18.9950    3.5740 C   0  0  0  0  0  0  0  0  0  0  0  0
   15.2500   19.4110    2.4890 C   0  0  0  0  0  0  0  0  0  0  0  0
   15.4250   18.7590    1.2180 C   0  0  0  0  0  0  0  0  0  0  0  0
   16.4120   17.7250    1.0620 C   0  0  0  0  0  0  0  0  0  0  0  0
   17.2390   17.3220    2.1630 C   0  0  0  0  0  0  0  0  0  0  0  0
   17.0540   17.9780    3.4120 C   0  0  0  0  0  0  0  0  0  0  0  0
   17.7990   17.7320    4.7040 C   0  0  0  0  0  0  0  0  0  0  0  0
   17.5230   19.0220    5.5170 C   0  0  1  0  0  0  0  0  0  0  0  0
   18.5730   19.9140    5.1680 O   0  0  0  0  0  0  0  0  0  0  0  0
   14.1110   23.1820    7.1760 C   0  0  0  0  0  0  0  0  0  0  0  0
   14.9730   22.3470    8.1180 C   0  0  0  0  0  0  0  0  0  0  0  0
   14.3750   21.2800    8.8770 C   0  0  0  0  0  0  0  0  0  0  0  0
   15.1730   20.4770    9.7450 C   0  0  0  0  0  0  0  0  0  0  0  0
   16.5770   20.7350    9.8590 C   0  0  0  0  0  0  0  0  0  0  0  0
   17.1780   21.7980    9.1060 C   0  0  0  0  0  0  0  0  0  0  0  0
   16.3810   22.6040    8.2360 C   0  0  0  0  0  0  0  0  0  0  0  0
   15.4120   23.7170    5.2220 O   0  0  0  0  0  0  0  0  0  0  0  0
   13.0310   22.9480    4.7450 C   0  0  0  0  0  0  0  0  0  0  0  0
   12.0780   23.9550    4.3850 N   0  0  0  0  0  0  0  0  0  0  0  0
   11.4140   24.7110    5.3210 N   0  0  0  0  0  0  0  0  0  0  0  0
   11.5480   23.4280    3.1080 C   0  0  0  0  0  0  0  0  0  0  0  0
   10.5400   24.4360    6.3090 C   0  0  0  0  0  0  0  0  0  0  0  0
   10.3620   23.2950    6.7660 O   0  0  0  0  0  0  0  0  0  0  0  0
    9.7620   25.6600    6.8290 C   0  0  2  0  0  0  0  0  0  0  0  0
    9.6900   25.9050    8.3760 C   0  0  0  0  0  0  0  0  0  0  0  0
    8.9260   27.2100    8.7310 C   0  0  0  0  0  0  0  0  0  0  0  0
    8.9130   24.7670    9.0460 C   0  0  0  0  0  0  0  0  0  0  0  0
    8.3920   25.5860    6.2930 N   0  0  0  0  0  0  0  0  0  0  0  0
    7.8210   26.4840    5.4740 C   0  0  0  0  0  0  0  0  0  0  0  0
    8.4670   27.4840    5.1070 O   0  0  0  0  0  0  0  0  0  0  0  0
    6.5440   26.2540    5.0890 O   0  0  0  0  0  0  0  0  0  0  0  0
   10.0340   23.4700    2.9970 C   0  0  0  0  0  0  0  0  0  0  0  0
    9.2150   22.5500    3.7300 C   0  0  0  0  0  0  0  0  0  0  0  0
    7.7910   22.6170    3.6320 C   0  0  0  0  0  0  0  0  0  0  0  0
    7.1660   23.6030    2.7910 C   0  0  0  0  0  0  0  0  0  0  0  0
    9.4220   24.4510    2.1580 C   0  0  0  0  0  0  0  0  0  0  0  0
    7.9990   24.5180    2.0510 C   0  0  0  0  0  0  0  0  0  0  0  0
    5.8550   27.1580    4.2320 C   0  0  0  0  0  0  0  0  0  0  0  0
   11.0770   26.0020    9.0310 C   0  0  0  0  0  0  0  0  0  0  0  0
    5.6714   23.6768    2.6876 C   0  0  0  0  0  0  0  0  0  0  0  0
    5.0719   24.1293    1.5007 C   0  0  0  0  0  0  0  0  0  0  0  0
    3.6791   24.2100    1.3721 C   0  0  0  0  0  0  0  0  0  0  0  0
    2.9189   23.8238    2.4670 C   0  0  0  0  0  0  0  0  0  0  0  0
    3.5009   23.3837    3.6213 C   0  0  0  0  0  0  0  0  0  0  0  0
    4.8789   23.2939    3.7757 C   0  0  0  0  0  0  0  0  0  0  0  0
    2.5339   23.0734    4.5241 O   0  0  0  0  0  0  0  0  0  0  0  0
    1.3046   23.3350    3.8949 C   0  0  0  0  0  0  0  0  0  0  0  0
    1.5671   23.8076    2.5980 O   0  0  0  0  0  0  0  0  0  0  0  0
   16.6043   21.5730    5.1810 H   0  0  0  0  0  0  0  0  0  0  0  0
   15.3918   18.8964    5.5295 H   0  0  0  0  0  0  0  0  0  0  0  0
   14.5062   20.1829    2.6244 H   0  0  0  0  0  0  0  0  0  0  0  0
   14.8071   19.0456    0.3793 H   0  0  0  0  0  0  0  0  0  0  0  0
   16.5294   17.2425    0.1025 H   0  0  0  0  0  0  0  0  0  0  0  0
   17.9782   16.5428    2.0445 H   0  0  0  0  0  0  0  0  0  0  0  0
   17.3594   16.8638    5.1967 H   0  0  0  0  0  0  0  0  0  0  0  0
   18.8600   17.5325    4.5463 H   0  0  0  0  0  0  0  0  0  0  0  0
   17.5366   18.8605    6.5961 H   0  0  0  0  0  0  0  0  0  0  0  0
   18.3959   20.7798    5.5430 H   0  0  0  0  0  0  0  0  0  0  0  0
   14.2490   24.2402    7.3996 H   0  0  0  0  0  0  0  0  0  0  0  0
   13.0676   22.9792    7.4222 H   0  0  0  0  0  0  0  0  0  0  0  0
   13.3172   21.0737    8.7853 H   0  0  0  0  0  0  0  0  0  0  0  0
   14.7181   19.6766   10.3104 H   0  0  0  0  0  0  0  0  0  0  0  0
   17.1843   20.1292   10.5159 H   0  0  0  0  0  0  0  0  0  0  0  0
   18.2373   21.9900    9.1996 H   0  0  0  0  0  0  0  0  0  0  0  0
   16.8465   23.4100    7.6891 H   0  0  0  0  0  0  0  0  0  0  0  0
   15.2169   24.6417    5.3908 H   0  0  0  0  0  0  0  0  0  0  0  0
   13.4621   22.6005    3.7986 H   0  0  0  0  0  0  0  0  0  0  0  0
   12.3077   22.2197    5.1168 H   0  0  0  0  0  0  0  0  0  0  0  0
   11.4310   25.6967    5.1048 H   0  0  0  0  0  0  0  0  0  0  0  0
   11.9973   23.9865    2.2859 H   0  0  0  0  0  0  0  0  0  0  0  0
   11.7730   22.3741    2.9225 H   0  0  0  0  0  0  0  0  0  0  0  0
   10.2663   26.5386    6.4223 H   0  0  0  0  0  0  0  0  0  0  0  0
    7.9061   27.1493    8.3513 H   0  0  0  0  0  0  0  0  0  0  0  0
    8.9032   27.3353    9.8135 H   0  0  0  0  0  0  0  0  0  0  0  0
    9.4318   28.0625    8.2777 H   0  0  0  0  0  0  0  0  0  0  0  0
    8.8659   24.9421   10.1208 H   0  0  0  0  0  0  0  0  0  0  0  0
    7.9022   24.7283    8.6401 H   0  0  0  0  0  0  0  0  0  0  0  0
    9.4174   23.8199    8.8544 H   0  0  0  0  0  0  0  0  0  0  0  0
    7.8581   24.7532    6.4858 H   0  0  0  0  0  0  0  0  0  0  0  0
    9.6765   21.8182    4.3789 H   0  0  0  0  0  0  0  0  0  0  0  0
    7.1841   21.9248    4.1973 H   0  0  0  0  0  0  0  0  0  0  0  0
   10.0322   25.1512    1.6062 H   0  0  0  0  0  0  0  0  0  0  0  0
    7.5445   25.2643    1.4161 H   0  0  0  0  0  0  0  0  0  0  0  0
    4.8467   26.7874    4.0474 H   0  0  0  0  0  0  0  0  0  0  0  0
    5.8002   28.1382    4.7056 H   0  0  0  0  0  0  0  0  0  0  0  0
    6.3898   27.2416    3.2859 H   0  0  0  0  0  0  0  0  0  0  0  0
   10.9627   26.1719   10.1016 H   0  0  0  0  0  0  0  0  0  0  0  0
   11.6225   25.0726    8.8673 H   0  0  0  0  0  0  0  0  0  0  0  0
   11.6308   26.8304    8.5893 H   0  0  0  0  0  0  0  0  0  0  0  0
    5.6975   24.4219    0.6680 H   0  0  0  0  0  0  0  0  0  0  0  0
    3.2241   24.5592    0.4558 H   0  0  0  0  0  0  0  0  0  0  0  0
    5.3281   22.9439    4.6946 H   0  0  0  0  0  0  0  0  0  0  0  0
    0.6902   22.4314    3.8588 H   0  0  0  0  0  0  0  0  0  0  0  0
    0.7293   24.0702    4.4639 H   0  0  0  0  0  0  0  0  0  0  0  0
  1  2  1  0
  1 15  1  0
  1 22  1  6
  1 23  1  0
  2  3  2  0
  2  4  1  0
  4  5  1  0
  4 54  1  0
  5  6  1  0
  5 13  1  0
  5 55  1  1
  6  7  2  0
  6 11  1  0
  7  8  1  0
  7 56  1  0
  8  9  2  0
  8 57  1  0
  9 10  1  0
  9 58  1  0
 10 11  2  0
 10 59  1  0
 11 12  1  0
 12 13  1  0
 12 60  1  0
 12 61  1  0
 13 14  1  0
 13 62  1  1
 14 63  1  0
 15 16  1  0
 15 64  1  0
 15 65  1  0
 16 17  2  0
 16 21  1  0
 17 18  1  0
 17 66  1  0
 18 19  2  0
 18 67  1  0
 19 20  1  0
 19 68  1  0
 20 21  2  0
 20 69  1  0
 21 70  1  0
 22 71  1  0
 23 24  1  0
 23 72  1  0
 23 73  1  0
 24 25  1  0
 24 26  1  0
 25 27  1  0
 25 74  1  0
 26 37  1  0
 26 75  1  0
 26 76  1  0
 27 28  2  0
 27 29  1  0
 29 30  1  0
 29 33  1  0
 29 77  1  6
 30 31  1  0
 30 32  1  0
 30 44  1  0
 31 78  1  0
 31 79  1  0
 31 80  1  0
 32 81  1  0
 32 82  1  0
 32 83  1  0
 33 34  1  0
 33 84  1  0
 34 35  2  0
 34 36  1  0
 36 43  1  0
 37 38  2  0
 37 41  1  0
 38 39  1  0
 38 85  1  0
 39 40  2  0
 39 86  1  0
 40 42  1  0
 40 45  1  0
 41 42  2  0
 41 87  1  0
 42 88  1  0
 43 89  1  0
 43 90  1  0
 43 91  1  0
 44 92  1  0
 44 93  1  0
 44 94  1  0
 45 50  1  0
 45 46  2  0
 46 47  1  0
 46 95  1  0
 47 48  2  0
 47 96  1  0
 48 49  1  0
 48 53  1  0
 49 50  2  0
 49 51  1  0
 50 97  1  0
 51 52  1  0
 52 53  1  0
 52 98  1  0
 52 99  1  0
M  END
>  <i_m_Source_File_Index>  (12) 
12

>  <b_m_subgroup_collapsed>  (12) 
0

>  <r_exp_dg>  (12) 
-10.8575

>  <s_m_Source_File>  (12) 
hiv_prot_ekegren_ligands.sdf

>  <s_m_Source_Path>  (12) 
path\input_structures\original_structures\misc

>  <s_m_entry_id>  (12) 
22

>  <s_m_entry_name>  (12) 
hiv_prot_ekegren_ligands.12

>  <s_m_subgroup_title>  (12) 
misc->HIV1 protease->hiv_prot_ekegren_ligands

>  <s_m_subgroupid>  (12) 
misc->HIV1 protease->hiv_prot_ekegren_ligands

>  <experimental dG reference units>  (12) 
kcal/mol

>  <experimental dG reference field>  (12) 
r_exp_dg

>  <kJ/mol experimental dG>  (12) 
-45.42778

>  <kcal/mol experimental dG>  (12) 
-10.8575

>  <AmberAM1BCCCache>  (12) 
gASVtAcAAAAAAABdlCiMFm51bXB5Ll9jb3JlLm11bHRpYXJyYXmUjAZzY2FsYXKUk5SMBW51bXB5lIwFZHR5cGWUk5SMAmY4lImIh5RSlChLA4wBPJROTk5K/////0r/////SwB0lGJDCNey+MbwPfA/lIaUUpRoA2gJQwiYYdoL34QdQJSGlFKUaANoCUMI3jQwOxjOHMCUhpRSlGgDaAlDCHvGlQ4bChnAlIaUUpRoA2gJQwhH67ilYj76P5SGlFKUaANoCUMIzE3jo2B99L+UhpRSlGgDaAlDCLSxTCkYjPK/lIaUUpRoA2gJQwihChQV/DX5v5SGlFKUaANoCUMIOEDs9M8S97+UhpRSlGgDaAlDCGdOePv4gfa/lIaUUpRoA2gJQwgfqSvEzDruv5SGlFKUaANoCUMIZIiRzXlz67+UhpRSlGgDaAlDCO/XFKdE7vY/lIaUUpRoA2gJQwj8ER5phyccwJSGlFKUaANoCUMIXtwtV5dc2r+UhpRSlGgDaAlDCAibTznOaPG/lIaUUpRoA2gJQwjxN8VbTWf3v5SGlFKUaANoCUMIUxEPkZbx+L+UhpRSlGgDaAlDCDUmlhNaHPi/lIaUUpRoA2gJQwhTEQ+RlvH4v5SGlFKUaANoCUMI8TfFW01n97+UhpRSlGgDaAlDCGSRLV6QLRzAlIaUUpRoA2gJQwjPuc/Friz6P5SGlFKUaANoCUMITMTUmZoVF8CUhpRSlGgDaAlDCKz5YinQ6RLAlIaUUpRoA2gJQwgG5HZ/LuMAQJSGlFKUaANoCUMIHXSfYsbHHECUhpRSlGgDaAlDCFnk/alI6RrAlIaUUpRoA2gJQwhkrVfez3LfP5SGlFKUaANoCUMIJu0Oc33R37+UhpRSlGgDaAlDCNRKjCDskPK/lIaUUpRoA2gJQwjUSowg7JDyv5SGlFKUaANoCUMI8unzngGgF8CUhpRSlGgDaAlDCCJzkxAWOCFAlIaUUpRoA2gJQwhX+alUWxgbwJSGlFKUaANoCUMIvKwccw32FMCUhpRSlGgDaAlDCIOVNdMhofG/lIaUUpRoA2gJQwh/Vb5+jTn2v5SGlFKUaANoCUMItEd9f17G9r+UhpRSlGgDaAlDCAN7h7QXKdq/lIaUUpRoA2gJQwh/Vb5+jTn2v5SGlFKUaANoCUMItEd9f17G9r+UhpRSlGgDaAlDCK8gkM7aJ/o/lIaUUpRoA2gJQwjUSowg7JDyv5SGlFKUaANoCUMIfFsXbfVq27+UhpRSlGgDaAlDCK1J9KNAsva/lIaUUpRoA2gJQwg0aWTrYnD1v5SGlFKUaANoCUMIbhPchFV45T+UhpRSlGgDaAlDCBs2pAZIFuQ/lIaUUpRoA2gJQwjxoZQFBy3zv5SGlFKUaANoCUMIIl1LrLuQD8CUhpRSlGgDaAlDCNxgeTV4SQ5AlIaUUpRoA2gJQwi3XnfJo4APwJSGlFKUaANoCUMIqrHRpfIlD0CUhpRSlGgDaAlDCPjgiLV4fPI/lIaUUpRoA2gJQwjJ1nwqmQ/7P5SGlFKUaANoCUMIEgallcws+T+UhpRSlGgDaAlDCG8IZ8GoFPk/lIaUUpRoA2gJQwgx/sgDRH35P5SGlFKUaANoCUMInPtGGGB26D+UhpRSlGgDaAlDCJz7Rhhgdug/lIaUUpRoA2gJQwhAE9vN+YTnP5SGlFKUaANoCUMIZ/4ryVMuE0CUhpRSlGgDaAlDCJqeIl/hK+w/lIaUUpRoA2gJQwianiJf4SvsP5SGlFKUaANoCUMIk9cSOY0H+z+UhpRSlGgDaAlDCAoIHLquGPk/lIaUUpRoA2gJQwjzDYEnVdz4P5SGlFKUaANoCUMICggcuq4Y+T+UhpRSlGgDaAlDCJPXEjmNB/s/lIaUUpRoA2gJQwiYcSbcFbETQJSGlFKUaANoCUMI/F0Ws7S/7j+UhpRSlGgDaAlDCPxdFrO0v+4/lIaUUpRoA2gJQwhv9TWM73EMQJSGlFKUaANoCUMIa+26ETcH6T+UhpRSlGgDaAlDCGvtuhE3B+k/lIaUUpRoA2gJQwhoEwlbfHnwP5SGlFKUaANoCUMIaWl9FWgk4T+UhpRSlGgDaAlDCGlpfRVoJOE/lIaUUpRoA2gJQwhpaX0VaCThP5SGlFKUaANoCUMIaWl9FWgk4T+UhpRSlGgDaAlDCGlpfRVoJOE/lIaUUpRoA2gJQwhpaX0VaCThP5SGlFKUaANoCUMIjMZYKLZQDkCUhpRSlGgDaAlDCA3S+NLgP/s/lIaUUpRoA2gJQwiF9VZjx9X5P5SGlFKUaANoCUMIDdL40uA/+z+UhpRSlGgDaAlDCIX1VmPH1fk/lIaUUpRoA2gJQwj4/WNXCPXjP5SGlFKUaANoCUMI+P1jVwj14z+UhpRSlGgDaAlDCPj9Y1cI9eM/lIaUUpRoA2gJQwhpaX0VaCThP5SGlFKUaANoCUMIaWl9FWgk4T+UhpRSlGgDaAlDCGlpfRVoJOE/lIaUUpRoA2gJQwi52mpzXef6P5SGlFKUaANoCUMI1Z7iHulK/T+UhpRSlGgDaAlDCLWMaM/7A/4/lIaUUpRoA2gJQwjSt+IxYyrrP5SGlFKUaANoCUMI0rfiMWMq6z+UhpRSlGUu

$$$$
20
     RDKit          3D

 99104  0  0  1  0  0  0  0  0999 V2000
   14.3070   22.9110    5.6430 C   0  0  1  0  0  0  0  0  0  0  0  0
   14.5790   21.3770    5.3860 C   0  0  0  0  0  0  0  0  0  0  0  0
   13.6330   20.5620    5.4030 O   0  0  0  0  0  0  0  0  0  0  0  0
   15.8330   20.9260    5.1890 N   0  0  0  0  0  0  0  0  0  0  0  0
   16.1290   19.4960    4.9900 C   0  0  1  0  0  0  0  0  0  0  0  0
   16.0890   18.9950    3.5740 C   0  0  0  0  0  0  0  0  0  0  0  0
   15.2500   19.4110    2.4890 C   0  0  0  0  0  0  0  0  0  0  0  0
   15.4250   18.7590    1.2180 C   0  0  0  0  0  0  0  0  0  0  0  0
   16.4120   17.7250    1.0620 C   0  0  0  0  0  0  0  0  0  0  0  0
   17.2390   17.3220    2.1630 C   0  0  0  0  0  0  0  0  0  0  0  0
   17.0540   17.9780    3.4120 C   0  0  0  0  0  0  0  0  0  0  0  0
   17.7990   17.7320    4.7040 C   0  0  0  0  0  0  0  0  0  0  0  0
   17.5230   19.0220    5.5170 C   0  0  1  0  0  0  0  0  0  0  0  0
   18.5730   19.9140    5.1680 O   0  0  0  0  0  0  0  0  0  0  0  0
   14.1110   23.1820    7.1760 C   0  0  0  0  0  0  0  0  0  0  0  0
   14.9730   22.3470    8.1180 C   0  0  0  0  0  0  0  0  0  0  0  0
   14.3750   21.2800    8.8770 C   0  0  0  0  0  0  0  0  0  0  0  0
   15.1730   20.4770    9.7450 C   0  0  0  0  0  0  0  0  0  0  0  0
   16.5770   20.7350    9.8590 C   0  0  0  0  0  0  0  0  0  0  0  0
   17.1780   21.7980    9.1060 C   0  0  0  0  0  0  0  0  0  0  0  0
   16.3810   22.6040    8.2360 C   0  0  0  0  0  0  0  0  0  0  0  0
   15.4120   23.7170    5.2220 O   0  0  0  0  0  0  0  0  0  0  0  0
   13.0310   22.9480    4.7450 C   0  0  0  0  0  0  0  0  0  0  0  0
   12.0780   23.9550    4.3850 N   0  0  0  0  0  0  0  0  0  0  0  0
   11.4140   24.7110    5.3210 N   0  0  0  0  0  0  0  0  0  0  0  0
   11.5480   23.4280    3.1080 C   0  0  0  0  0  0  0  0  0  0  0  0
   10.5400   24.4360    6.3090 C   0  0  0  0  0  0  0  0  0  0  0  0
   10.3620   23.2950    6.7660 O   0  0  0  0  0  0  0  0  0  0  0  0
    9.7620   25.6600    6.8290 C   0  0  2  0  0  0  0  0  0  0  0  0
    9.6900   25.9050    8.3760 C   0  0  0  0  0  0  0  0  0  0  0  0
    8.9260   27.2100    8.7310 C   0  0  0  0  0  0  0  0  0  0  0  0
   11.0770   26.0020    9.0310 C   0  0  0  0  0  0  0  0  0  0  0  0
    8.3920   25.5860    6.2930 N   0  0  0  0  0  0  0  0  0  0  0  0
    7.8210   26.4840    5.4740 C   0  0  0  0  0  0  0  0  0  0  0  0
    8.4670   27.4840    5.1070 O   0  0  0  0  0  0  0  0  0  0  0  0
    6.5440   26.2540    5.0890 O   0  0  0  0  0  0  0  0  0  0  0  0
   10.0340   23.4700    2.9970 C   0  0  0  0  0  0  0  0  0  0  0  0
    9.2150   22.5500    3.7300 C   0  0  0  0  0  0  0  0  0  0  0  0
    7.7910   22.6170    3.6320 C   0  0  0  0  0  0  0  0  0  0  0  0
    7.1660   23.6030    2.7910 C   0  0  0  0  0  0  0  0  0  0  0  0
    9.4220   24.4510    2.1580 C   0  0  0  0  0  0  0  0  0  0  0  0
    7.9990   24.5180    2.0510 C   0  0  0  0  0  0  0  0  0  0  0  0
    5.8550   27.1580    4.2320 C   0  0  0  0  0  0  0  0  0  0  0  0
    8.9130   24.7670    9.0460 C   0  0  0  0  0  0  0  0  0  0  0  0
   16.6066   21.5751    5.1743 H   0  0  0  0  0  0  0  0  0  0  0  0
   15.3750   18.9372    5.5443 H   0  0  0  0  0  0  0  0  0  0  0  0
   14.5171   20.1896    2.6409 H   0  0  0  0  0  0  0  0  0  0  0  0
   14.8134   19.0457    0.3753 H   0  0  0  0  0  0  0  0  0  0  0  0
   16.5391   17.2396    0.1056 H   0  0  0  0  0  0  0  0  0  0  0  0
   17.9744   16.5425    2.0290 H   0  0  0  0  0  0  0  0  0  0  0  0
   18.8664   17.6599    4.4955 H   0  0  0  0  0  0  0  0  0  0  0  0
   17.3544   16.8804    5.2189 H   0  0  0  0  0  0  0  0  0  0  0  0
   17.5021   18.8251    6.5889 H   0  0  0  0  0  0  0  0  0  0  0  0
   18.3959   20.7798    5.5430 H   0  0  0  0  0  0  0  0  0  0  0  0
   13.0607   23.0457    7.4339 H   0  0  0  0  0  0  0  0  0  0  0  0
   14.2782   24.2399    7.3784 H   0  0  0  0  0  0  0  0  0  0  0  0
   13.3165   21.0836    8.7911 H   0  0  0  0  0  0  0  0  0  0  0  0
   14.7178   19.6787   10.3125 H   0  0  0  0  0  0  0  0  0  0  0  0
   17.1861   20.1287   10.5130 H   0  0  0  0  0  0  0  0  0  0  0  0
   18.2367   21.9916    9.1955 H   0  0  0  0  0  0  0  0  0  0  0  0
   16.8334   23.4038    7.6685 H   0  0  0  0  0  0  0  0  0  0  0  0
   15.2169   24.6417    5.3908 H   0  0  0  0  0  0  0  0  0  0  0  0
   12.4600   22.0496    4.9794 H   0  0  0  0  0  0  0  0  0  0  0  0
   13.2812   22.4150    3.8277 H   0  0  0  0  0  0  0  0  0  0  0  0
   11.7063   25.6636    5.1560 H   0  0  0  0  0  0  0  0  0  0  0  0
   11.8920   22.4030    2.9697 H   0  0  0  0  0  0  0  0  0  0  0  0
   11.9865   23.9827    2.2785 H   0  0  0  0  0  0  0  0  0  0  0  0
   10.2275   26.5421    6.3894 H   0  0  0  0  0  0  0  0  0  0  0  0
    8.9032   27.3353    9.8135 H   0  0  0  0  0  0  0  0  0  0  0  0
    9.4318   28.0625    8.2777 H   0  0  0  0  0  0  0  0  0  0  0  0
    7.9061   27.1493    8.3513 H   0  0  0  0  0  0  0  0  0  0  0  0
   10.9627   26.1719   10.1016 H   0  0  0  0  0  0  0  0  0  0  0  0
   11.6225   25.0726    8.8673 H   0  0  0  0  0  0  0  0  0  0  0  0
   11.6308   26.8304    8.5893 H   0  0  0  0  0  0  0  0  0  0  0  0
    7.8722   24.7735    6.5926 H   0  0  0  0  0  0  0  0  0  0  0  0
    9.6737   21.8021    4.3597 H   0  0  0  0  0  0  0  0  0  0  0  0
    7.1781   21.9253    4.1909 H   0  0  0  0  0  0  0  0  0  0  0  0
   10.0354   25.1448    1.6023 H   0  0  0  0  0  0  0  0  0  0  0  0
    7.5480   25.2610    1.4100 H   0  0  0  0  0  0  0  0  0  0  0  0
    4.8467   26.7874    4.0474 H   0  0  0  0  0  0  0  0  0  0  0  0
    5.8002   28.1382    4.7056 H   0  0  0  0  0  0  0  0  0  0  0  0
    6.3898   27.2416    3.2859 H   0  0  0  0  0  0  0  0  0  0  0  0
    8.8659   24.9421   10.1208 H   0  0  0  0  0  0  0  0  0  0  0  0
    7.9022   24.7283    8.6401 H   0  0  0  0  0  0  0  0  0  0  0  0
    9.4174   23.8199    8.8544 H   0  0  0  0  0  0  0  0  0  0  0  0
    4.9274   24.8242    1.7075 S   0  0  0  0  0  0  0  0  0  0  0  0
    5.7074   23.6656    2.6970 C   0  0  0  0  0  0  0  0  0  0  0  0
    4.9296   22.8427    3.3617 C   0  0  0  0  0  0  0  0  0  0  0  0
    3.6039   23.1343    3.0803 C   0  0  0  0  0  0  0  0  0  0  0  0
    2.4807   22.4647    3.6071 C   0  0  0  0  0  0  0  0  0  0  0  0
    1.1929   22.8655    3.2357 C   0  0  0  0  0  0  0  0  0  0  0  0
    1.0122   23.9220    2.3486 C   0  0  0  0  0  0  0  0  0  0  0  0
    2.1090   24.6032    1.8113 C   0  0  0  0  0  0  0  0  0  0  0  0
    3.3979   24.1926    2.1909 C   0  0  0  0  0  0  0  0  0  0  0  0
    2.6266   21.6411    4.2989 H   0  0  0  0  0  0  0  0  0  0  0  0
    0.3299   22.3456    3.6450 H   0  0  0  0  0  0  0  0  0  0  0  0
    0.0050   24.2235    2.0681 H   0  0  0  0  0  0  0  0  0  0  0  0
    1.9664   25.4274    1.1191 H   0  0  0  0  0  0  0  0  0  0  0  0
    5.3630   22.0894    4.0029 H   0  0  0  0  0  0  0  0  0  0  0  0
  1  2  1  0
  1 15  1  0
  1 22  1  6
  1 23  1  0
  2  3  2  0
  2  4  1  0
  4  5  1  0
  4 45  1  0
  5  6  1  0
  5 13  1  0
  5 46  1  1
  6  7  2  0
  6 11  1  0
  7  8  1  0
  7 47  1  0
  8  9  2  0
  8 48  1  0
  9 10  1  0
  9 49  1  0
 10 11  2  0
 10 50  1  0
 11 12  1  0
 12 13  1  0
 12 51  1  0
 12 52  1  0
 13 14  1  0
 13 53  1  1
 14 54  1  0
 15 16  1  0
 15 55  1  0
 15 56  1  0
 16 17  2  0
 16 21  1  0
 17 18  1  0
 17 57  1  0
 18 19  2  0
 18 58  1  0
 19 20  1  0
 19 59  1  0
 20 21  2  0
 20 60  1  0
 21 61  1  0
 22 62  1  0
 23 24  1  0
 23 63  1  0
 23 64  1  0
 24 25  1  0
 24 26  1  0
 25 27  1  0
 25 65  1  0
 26 37  1  0
 26 66  1  0
 26 67  1  0
 27 28  2  0
 27 29  1  0
 29 30  1  0
 29 33  1  0
 29 68  1  6
 30 31  1  0
 30 32  1  0
 30 44  1  0
 31 69  1  0
 31 70  1  0
 31 71  1  0
 32 72  1  0
 32 73  1  0
 32 74  1  0
 33 34  1  0
 33 75  1  0
 34 35  2  0
 34 36  1  0
 36 43  1  0
 37 38  2  0
 37 41  1  0
 38 39  1  0
 38 76  1  0
 39 40  2  0
 39 77  1  0
 40 42  1  0
 40 87  1  0
 41 42  2  0
 41 78  1  0
 42 79  1  0
 43 80  1  0
 43 81  1  0
 43 82  1  0
 44 83  1  0
 44 84  1  0
 44 85  1  0
 86 87  1  0
 86 94  1  0
 87 88  2  0
 88 89  1  0
 88 99  1  0
 89 90  1  0
 89 94  2  0
 90 91  2  0
 90 95  1  0
 91 92  1  0
 91 96  1  0
 92 93  2  0
 92 97  1  0
 93 94  1  0
 93 98  1  0
M  END
>  <i_m_Source_File_Index>  (13) 
13

>  <b_m_subgroup_collapsed>  (13) 
0

>  <r_exp_dg>  (13) 
-11.536

>  <s_m_Source_File>  (13) 
hiv_prot_ekegren_ligands.sdf

>  <s_m_Source_Path>  (13) 
path\input_structures\original_structures\misc

>  <s_m_entry_id>  (13) 
23

>  <s_m_entry_name>  (13) 
hiv_prot_ekegren_ligands.13

>  <s_m_subgroup_title>  (13) 
misc->HIV1 protease->hiv_prot_ekegren_ligands

>  <s_m_subgroupid>  (13) 
misc->HIV1 protease->hiv_prot_ekegren_ligands

>  <experimental dG reference units>  (13) 
kcal/mol

>  <experimental dG reference field>  (13) 
r_exp_dg

>  <kJ/mol experimental dG>  (13) 
-48.266624

>  <kcal/mol experimental dG>  (13) 
-11.536

>  <AmberAM1BCCCache>  (13) 
gASVtAcAAAAAAABdlCiMFm51bXB5Ll9jb3JlLm11bHRpYXJyYXmUjAZzY2FsYXKUk5SMBW51bXB5lIwFZHR5cGWUk5SMAmY4lImIh5RSlChLA4wBPJROTk5K/////0r/////SwB0lGJDCD/ioVX0+PE/lIaUUpRoA2gJQwhC8xbbR7gdQJSGlFKUaANoCUMI6hsI5R3lHMCUhpRSlGgDaAlDCEejz/q7iRnAlIaUUpRoA2gJQwgGvRbxyX/1P5SGlFKUaANoCUMIb9n0GHKC9b+UhpRSlGgDaAlDCM1gvC4QJ/K/lIaUUpRoA2gJQwg2tGm0Rwn5v5SGlFKUaANoCUMI89/u3bBK97+UhpRSlGgDaAlDCN3y/juSifa/lIaUUpRoA2gJQwhJWsJp0V7wv5SGlFKUaANoCUMIeiL5LN5F6L+UhpRSlGgDaAlDCCIV/zR3HPg/lIaUUpRoA2gJQwhZfmp1PAgcwJSGlFKUaANoCUMIWCvpBcrv0r+UhpRSlGgDaAlDCOo9qlx/gPG/lIaUUpRoA2gJQwjc5VNLVw73v5SGlFKUaANoCUMI2KT8lzCm+b+UhpRSlGgDaAlDCNrL/WnhF/i/lIaUUpRoA2gJQwjYpPyXMKb5v5SGlFKUaANoCUMI3OVTS1cO97+UhpRSlGgDaAlDCEe8IM9bHRzAlIaUUpRoA2gJQwh6QRm2eGL4P5SGlFKUaANoCUMIeXazkfe6FsCUhpRSlGgDaAlDCEscLwEZLhPAlIaUUpRoA2gJQwitmQ9x6o4AQJSGlFKUaANoCUMIOZAf85CQHECUhpRSlGgDaAlDCL5O05Eb3hrAlIaUUpRoA2gJQwiOdF6bs6vgP5SGlFKUaANoCUMIlrQBVbbM3b+UhpRSlGgDaAlDCIy5/Gd4kPK/lIaUUpRoA2gJQwiMufxneJDyv5SGlFKUaANoCUMIblsPCmlMF8CUhpRSlGgDaAlDCFc9uJG1QyFAlIaUUpRoA2gJQwjar8GcdpEawJSGlFKUaANoCUMIVVAkXUcwFcCUhpRSlGgDaAlDCNEpueivTfK/lIaUUpRoA2gJQwiX94KTSln2v5SGlFKUaANoCUMI3fL+O5KJ9r+UhpRSlGgDaAlDCIXxrKQmncu/lIaUUpRoA2gJQwiX94KTSln2v5SGlFKUaANoCUMI3fL+O5KJ9r+UhpRSlGgDaAlDCD96kmlfNPo/lIaUUpRoA2gJQwiMufxneJDyv5SGlFKUaANoCUMIJuVNb8/nDkCUhpRSlGgDaAlDCMI59UEJkfI/lIaUUpRoA2gJQwigK/ttZUz7P5SGlFKUaANoCUMIdV7GGmNF+T+UhpRSlGgDaAlDCLtm7bPl8Pg/lIaUUpRoA2gJQwi6WULDqnX5P5SGlFKUaANoCUMIT4l2maAN6j+UhpRSlGgDaAlDCE+JdpmgDeo/lIaUUpRoA2gJQwhILskEBK/tP5SGlFKUaANoCUMIxxUoAmYnE0CUhpRSlGgDaAlDCJBQRn/8UOw/lIaUUpRoA2gJQwiQUEZ//FDsP5SGlFKUaANoCUMI2qkpTYBe+z+UhpRSlGgDaAlDCF5kK4gJCfk/lIaUUpRoA2gJQwgYaa/fwdj4P5SGlFKUaANoCUMIXmQriAkJ+T+UhpRSlGgDaAlDCNqpKU2AXvs/lIaUUpRoA2gJQwjXysa3C5cTQJSGlFKUaANoCUMIMTQucqpy7T+UhpRSlGgDaAlDCDE0LnKqcu0/lIaUUpRoA2gJQwhAIEC1T4wMQJSGlFKUaANoCUMI2n9u6i9u6j+UhpRSlGgDaAlDCNp/buovbuo/lIaUUpRoA2gJQwinMIsw4JbtP5SGlFKUaANoCUMIRtarmB4v4T+UhpRSlGgDaAlDCEbWq5geL+E/lIaUUpRoA2gJQwhG1quYHi/hP5SGlFKUaANoCUMIRtarmB4v4T+UhpRSlGgDaAlDCEbWq5geL+E/lIaUUpRoA2gJQwhG1quYHi/hP5SGlFKUaANoCUMI14ba3tCPDUCUhpRSlGgDaAlDCMS8Oathnfo/lIaUUpRoA2gJQwjRRjJlyTb6P5SGlFKUaANoCUMIxLw5q2Gd+j+UhpRSlGgDaAlDCNFGMmXJNvo/lIaUUpRoA2gJQwiwuG3ZW9DjP5SGlFKUaANoCUMIsLht2VvQ4z+UhpRSlGgDaAlDCLC4bdlb0OM/lIaUUpRoA2gJQwhG1quYHi/hP5SGlFKUaANoCUMIRtarmB4v4T+UhpRSlGgDaAlDCEbWq5geL+E/lIaUUpRoA2gJQwhfmgHWYhrSP5SGlFKUaANoCUMI3bmI0YF217+UhpRSlGgDaAlDCNgpAoLyYva/lIaUUpRoA2gJQwiW6DCWjqruv5SGlFKUaANoCUMIW361UVD58L+UhpRSlGgDaAlDCKqwxnJ9Lfm/lIaUUpRoA2gJQwjd8v47kon2v5SGlFKUaANoCUMI/GGdRP4a8r+UhpRSlGgDaAlDCOnDqFZ3C+y/lIaUUpRoA2gJQwgAVb5r8qX5P5SGlFKUaANoCUMIAWJpXC0h+T+UhpRSlGgDaAlDCNJgiEY/Lfk/lIaUUpRoA2gJQwjoTXjoXe75P5SGlFKUaANoCUMIbfZtlYtr/T+UhpRSlGUu

$$$$
