4
     RDKit          3D

 43 46  0  0  1  0  0  0  0  0999 V2000
   18.7905   -2.3380   -0.7064 C   0  0  0  0  0  0  0  0  0  0  0  0
   16.5171   -3.0307   -1.5786 C   0  0  0  0  0  0  0  0  0  0  0  0
   18.0081   -3.4144   -1.4765 C   0  0  0  0  0  0  0  0  0  0  0  0
   18.2209   -4.8140   -0.8207 C   0  0  0  0  0  0  0  0  0  0  0  0
   18.6413   -3.6096   -2.8456 C   0  0  0  0  0  0  0  0  0  0  0  0
   18.6085   -2.7607   -3.9493 C   0  0  0  0  0  0  0  0  0  0  0  0
   19.3298   -3.1216   -5.0998 C   0  0  0  0  0  0  0  0  0  0  0  0
   19.3040   -2.2180   -6.3066 C   0  0  0  0  0  0  0  0  0  0  0  0
   20.3420   -1.6674   -6.6704 O   0  0  0  0  0  0  0  0  0  0  0  0
   18.1271   -2.0795   -6.9527 N   0  0  0  0  0  0  0  0  0  0  0  0
   17.9369   -1.1747   -8.0908 C   0  0  0  0  0  0  0  0  0  0  0  0
   16.7801   -1.8132   -8.8111 C   0  0  0  0  0  0  0  0  0  0  0  0
   16.3121   -1.5604  -10.0965 C   0  0  0  0  0  0  0  0  0  0  0  0
   15.2519   -2.3388  -10.5755 C   0  0  0  0  0  0  0  0  0  0  0  0
   14.6932   -3.3524   -9.7855 C   0  0  0  0  0  0  0  0  0  0  0  0
   15.1811   -3.5934   -8.4975 C   0  0  0  0  0  0  0  0  0  0  0  0
   16.2153   -2.7932   -8.0252 C   0  0  0  0  0  0  0  0  0  0  0  0
   16.9131   -2.8603   -6.6954 C   0  0  0  0  0  0  0  0  0  0  0  0
   20.0744   -4.3212   -5.1041 C   0  0  0  0  0  0  0  0  0  0  0  0
   20.7895   -4.7057   -6.2038 O   0  0  0  0  0  0  0  0  0  0  0  0
   20.0906   -5.1601   -3.9854 C   0  0  0  0  0  0  0  0  0  0  0  0
   19.3581   -4.7818   -2.8708 C   0  0  0  0  0  0  0  0  0  0  0  0
   19.1980   -5.4579   -1.6781 N   0  0  0  0  0  0  0  0  0  0  0  0
   19.8340   -2.6207   -0.5626 H   0  0  0  0  0  0  0  0  0  0  0  0
   18.7822   -1.3973   -1.2537 H   0  0  0  0  0  0  0  0  0  0  0  0
   18.3595   -2.1556    0.2775 H   0  0  0  0  0  0  0  0  0  0  0  0
   15.9404   -3.7785   -2.1217 H   0  0  0  0  0  0  0  0  0  0  0  0
   16.0698   -2.9210   -0.5922 H   0  0  0  0  0  0  0  0  0  0  0  0
   16.3806   -2.0794   -2.0947 H   0  0  0  0  0  0  0  0  0  0  0  0
   18.6015   -4.7448    0.1976 H   0  0  0  0  0  0  0  0  0  0  0  0
   17.3081   -5.4054   -0.8010 H   0  0  0  0  0  0  0  0  0  0  0  0
   18.0466   -1.8380   -3.9070 H   0  0  0  0  0  0  0  0  0  0  0  0
   17.6768   -0.1712   -7.7558 H   0  0  0  0  0  0  0  0  0  0  0  0
   18.8161   -1.1287   -8.7337 H   0  0  0  0  0  0  0  0  0  0  0  0
   16.7543   -0.7870  -10.7053 H   0  0  0  0  0  0  0  0  0  0  0  0
   14.8593   -2.1695  -11.5630 H   0  0  0  0  0  0  0  0  0  0  0  0
   13.8855   -3.9539  -10.1753 H   0  0  0  0  0  0  0  0  0  0  0  0
   14.7700   -4.3814   -7.8875 H   0  0  0  0  0  0  0  0  0  0  0  0
   17.1223   -3.8931   -6.4130 H   0  0  0  0  0  0  0  0  0  0  0  0
   16.3031   -2.3879   -5.9252 H   0  0  0  0  0  0  0  0  0  0  0  0
   21.4094   -5.4224   -6.0144 H   0  0  0  0  0  0  0  0  0  0  0  0
   20.6443   -6.0864   -3.9860 H   0  0  0  0  0  0  0  0  0  0  0  0
   19.5514   -6.3926   -1.5160 H   0  0  0  0  0  0  0  0  0  0  0  0
  1  3  1  0
  1 24  1  0
  1 25  1  0
  1 26  1  0
  2  3  1  0
  2 27  1  0
  2 28  1  0
  2 29  1  0
  3  4  1  0
  3  5  1  0
  4 23  1  0
  4 30  1  0
  4 31  1  0
  5  6  1  0
  5 22  2  0
  6  7  2  0
  6 32  1  0
  7  8  1  0
  7 19  1  0
  8  9  2  0
  8 10  1  0
 10 11  1  0
 10 18  1  0
 11 12  1  0
 11 33  1  0
 11 34  1  0
 12 13  1  0
 12 17  2  0
 13 14  2  0
 13 35  1  0
 14 15  1  0
 14 36  1  0
 15 16  2  0
 15 37  1  0
 16 17  1  0
 16 38  1  0
 17 18  1  0
 18 39  1  0
 18 40  1  0
 19 20  1  0
 19 21  2  0
 20 41  1  0
 21 22  1  0
 21 42  1  0
 22 23  1  0
 23 43  1  0
M  END
>  <r_exp_dg>  (1) 
-8.93

>  <experimental dG reference units>  (1) 
kcal/mol

>  <experimental dG reference field>  (1) 
r_exp_dg

>  <kJ/mol experimental dG>  (1) 
-37.36312

>  <kcal/mol experimental dG>  (1) 
-8.93

>  <AmberAM1BCCCache>  (1) 
gASVjAMAAAAAAABdlCiMFm51bXB5Ll9jb3JlLm11bHRpYXJyYXmUjAZzY2FsYXKUk5SMBW51bXB5lIwFZHR5cGWUk5SMAmY4lImIh5RSlChLA4wBPJROTk5K/////0r/////SwB0lGJDCNwX3H+uuO+/lIaUUpRoA2gJQwjcF9x/rrjvv5SGlFKUaANoCUMIRZ+jlUxdrL+UhpRSlGgDaAlDCIrBaamHFP8/lIaUUpRoA2gJQwgKz4WMUD8AwJSGlFKUaANoCUMIa+49tlkfxb+UhpRSlGgDaAlDCCrwaoqdAgPAlIaUUpRoA2gJQwj4DDzmb1QgQJSGlFKUaANoCUMIixdtB8GrHMCUhpRSlGgDaAlDCAUW1N+ilRXAlIaUUpRoA2gJQwirSl6TaZz5P5SGlFKUaANoCUMIWOSgr1B787+UhpRSlGgDaAlDCJf8ybyCjvS/lIaUUpRoA2gJQwgFnnnmG1T4v5SGlFKUaANoCUMIBZ555htU+L+UhpRSlGgDaAlDCJf8ybyCjvS/lIaUUpRoA2gJQwhY5KCvUHvzv5SGlFKUaANoCUMIq0pek2mc+T+UhpRSlGgDaAlDCCwXbFxOdAFAlIaUUpRoA2gJQwg4pAQzbQ8XwJSGlFKUaANoCUMIBZ555htUCMCUhpRSlGgDaAlDCEiP6rrfCv8/lIaUUpRoA2gJQwiClN8EJoogwJSGlFKUaANoCUMIE7hh+hZ13z+UhpRSlGgDaAlDCBO4YfoWdd8/lIaUUpRoA2gJQwgTuGH6FnXfP5SGlFKUaANoCUMIE7hh+hZ13z+UhpRSlGgDaAlDCBO4YfoWdd8/lIaUUpRoA2gJQwgTuGH6FnXfP5SGlFKUaANoCUMIAnTY97Pg4z+UhpRSlGgDaAlDCAJ02Pez4OM/lIaUUpRoA2gJQwjOJ5VaGwv9P5SGlFKUaANoCUMIhegh4vVw6T+UhpRSlGgDaAlDCIXoIeL1cOk/lIaUUpRoA2gJQwgyeFkqWdb5P5SGlFKUaANoCUMI1o/t3/Lk+D+UhpRSlGgDaAlDCNaP7d/y5Pg/lIaUUpRoA2gJQwgyeFkqWdb5P5SGlFKUaANoCUMIhegh4vVw6T+UhpRSlGgDaAlDCIXoIeL1cOk/lIaUUpRoA2gJQwj1CzfZmfETQJSGlFKUaANoCUMI0VtBHQf4+j+UhpRSlGgDaAlDCFBfUixMqRJAlIaUUpRlLg==

$$$$
1
     RDKit          3D

 41 43  0  0  1  0  0  0  0  0999 V2000
   18.3908   -2.2921   -0.4245 C   0  0  0  0  0  0  0  0  0  0  0  0
   17.5454   -3.2518   -1.2754 C   0  0  0  0  0  0  0  0  0  0  0  0
   16.1558   -2.6640   -1.5989 C   0  0  0  0  0  0  0  0  0  0  0  0
   18.3301   -3.7033   -2.5147 C   0  0  0  0  0  0  0  0  0  0  0  0
   18.3443   -2.9022   -3.6645 C   0  0  0  0  0  0  0  0  0  0  0  0
   19.0608   -3.2846   -4.8032 C   0  0  0  0  0  0  0  0  0  0  0  0
   19.0228   -2.4167   -6.0353 C   0  0  0  0  0  0  0  0  0  0  0  0
   20.0298   -1.7929   -6.3648 O   0  0  0  0  0  0  0  0  0  0  0  0
   17.8718   -2.3920   -6.7396 N   0  0  0  0  0  0  0  0  0  0  0  0
   17.6931   -1.5651   -7.9393 C   0  0  0  0  0  0  0  0  0  0  0  0
   16.5144   -2.2149   -8.6109 C   0  0  0  0  0  0  0  0  0  0  0  0
   16.0114   -1.9776   -9.8861 C   0  0  0  0  0  0  0  0  0  0  0  0
   14.9227   -2.7421  -10.3217 C   0  0  0  0  0  0  0  0  0  0  0  0
   14.3657   -3.7249   -9.4895 C   0  0  0  0  0  0  0  0  0  0  0  0
   14.8869   -3.9514   -8.2103 C   0  0  0  0  0  0  0  0  0  0  0  0
   15.9592   -3.1719   -7.7899 C   0  0  0  0  0  0  0  0  0  0  0  0
   16.6996   -3.2387   -6.4833 C   0  0  0  0  0  0  0  0  0  0  0  0
   19.7974   -4.4756   -4.7778 C   0  0  0  0  0  0  0  0  0  0  0  0
   20.5082   -4.8929   -5.8707 O   0  0  0  0  0  0  0  0  0  0  0  0
   19.8061   -5.2710   -3.6344 C   0  0  0  0  0  0  0  0  0  0  0  0
   19.0712   -4.8951   -2.5102 C   0  0  0  0  0  0  0  0  0  0  0  0
   19.0822   -5.7210   -1.4169 O   0  0  0  0  0  0  0  0  0  0  0  0
   19.2992   -2.7754   -0.0626 H   0  0  0  0  0  0  0  0  0  0  0  0
   18.6890   -1.4167   -0.9962 H   0  0  0  0  0  0  0  0  0  0  0  0
   17.8354   -1.9394    0.4436 H   0  0  0  0  0  0  0  0  0  0  0  0
   17.3442   -4.1303   -0.6619 H   0  0  0  0  0  0  0  0  0  0  0  0
   15.5629   -3.3587   -2.1950 H   0  0  0  0  0  0  0  0  0  0  0  0
   15.5978   -2.4630   -0.6845 H   0  0  0  0  0  0  0  0  0  0  0  0
   16.2176   -1.7214   -2.1425 H   0  0  0  0  0  0  0  0  0  0  0  0
   17.7959   -1.9720   -3.6766 H   0  0  0  0  0  0  0  0  0  0  0  0
   17.4683   -0.5298   -7.6830 H   0  0  0  0  0  0  0  0  0  0  0  0
   18.5704   -1.5916   -8.5874 H   0  0  0  0  0  0  0  0  0  0  0  0
   16.4507   -1.2244  -10.5210 H   0  0  0  0  0  0  0  0  0  0  0  0
   14.5121   -2.5801  -11.3070 H   0  0  0  0  0  0  0  0  0  0  0  0
   13.5319   -4.3142   -9.8401 H   0  0  0  0  0  0  0  0  0  0  0  0
   14.4714   -4.7127   -7.5683 H   0  0  0  0  0  0  0  0  0  0  0  0
   16.9739   -4.2672   -6.2438 H   0  0  0  0  0  0  0  0  0  0  0  0
   16.0878   -2.8341   -5.6780 H   0  0  0  0  0  0  0  0  0  0  0  0
   21.1476   -5.5883   -5.6673 H   0  0  0  0  0  0  0  0  0  0  0  0
   20.3696   -6.1923   -3.6285 H   0  0  0  0  0  0  0  0  0  0  0  0
   19.7001   -6.4561   -1.5008 H   0  0  0  0  0  0  0  0  0  0  0  0
  1  2  1  0
  1 23  1  0
  1 24  1  0
  1 25  1  0
  2  3  1  0
  2  4  1  0
  2 26  1  0
  3 27  1  0
  3 28  1  0
  3 29  1  0
  4  5  2  0
  4 21  1  0
  5  6  1  0
  5 30  1  0
  6  7  1  0
  6 18  2  0
  7  8  2  0
  7  9  1  0
  9 10  1  0
  9 17  1  0
 10 11  1  0
 10 31  1  0
 10 32  1  0
 11 12  1  0
 11 16  2  0
 12 13  2  0
 12 33  1  0
 13 14  1  0
 13 34  1  0
 14 15  2  0
 14 35  1  0
 15 16  1  0
 15 36  1  0
 16 17  1  0
 17 37  1  0
 17 38  1  0
 18 19  1  0
 18 20  1  0
 19 39  1  0
 20 21  2  0
 20 40  1  0
 21 22  1  0
 22 41  1  0
M  END
>  <r_exp_dg>  (2) 
-12.72

>  <experimental dG reference units>  (2) 
kcal/mol

>  <experimental dG reference field>  (2) 
r_exp_dg

>  <kJ/mol experimental dG>  (2) 
-53.22048

>  <kcal/mol experimental dG>  (2) 
-12.72

>  <AmberAM1BCCCache>  (2) 
gASVZgMAAAAAAABdlCiMFm51bXB5Ll9jb3JlLm11bHRpYXJyYXmUjAZzY2FsYXKUk5SMBW51bXB5lIwFZHR5cGWUk5SMAmY4lImIh5RSlChLA4wBPJROTk5K/////0r/////SwB0lGJDCMogfRPNy/G/lIaUUpRoA2gJQwgcWjLaAszOv5SGlFKUaANoCUMIyiB9E83L8b+UhpRSlGgDaAlDCA3A55+MOgLAlIaUUpRoA2gJQwg2EB82wbPPv5SGlFKUaANoCUMI7Bn9t326AsCUhpRSlGgDaAlDCHwFihFLSCBAlIaUUpRoA2gJQwg9K1UIw5McwJSGlFKUaANoCUMIiCjbyraJFcCUhpRSlGgDaAlDCFcFxj7Sm/k/lIaUUpRoA2gJQwhOJ3fYC5Tzv5SGlFKUaANoCUMIR0QkPfZ29L+UhpRSlGgDaAlDCBPolZJrJPi/lIaUUpRoA2gJQwgT6JWSayT4v5SGlFKUaANoCUMIR0QkPfZ29L+UhpRSlGgDaAlDCE4nd9gLlPO/lIaUUpRoA2gJQwhXBcY+0pv5P5SGlFKUaANoCUMIa+3ZLm68AUCUhpRSlGgDaAlDCBi5zUld6xbAlIaUUpRoA2gJQwiXuX8N05wIwJSGlFKUaANoCUMImeEPVCE1AkCUhpRSlGgDaAlDCLupYC1GiBfAlIaUUpRoA2gJQwhFSqSxDu/cP5SGlFKUaANoCUMIRUqksQ7v3D+UhpRSlGgDaAlDCEVKpLEO79w/lIaUUpRoA2gJQwi0nWfW/+PmP5SGlFKUaANoCUMIRUqksQ7v3D+UhpRSlGgDaAlDCEVKpLEO79w/lIaUUpRoA2gJQwhFSqSxDu/cP5SGlFKUaANoCUMINeeAXTza/D+UhpRSlGgDaAlDCIJbLw3rh+k/lIaUUpRoA2gJQwiCWy8N64fpP5SGlFKUaANoCUMIgTD/qeXt+T+UhpRSlGgDaAlDCCVIk19//Pg/lIaUUpRoA2gJQwglSJNff/z4P5SGlFKUaANoCUMIgTD/qeXt+T+UhpRSlGgDaAlDCIJbLw3rh+k/lIaUUpRoA2gJQwiCWy8N64fpP5SGlFKUaANoCUMIFPdtwqkVFECUhpRSlGgDaAlDCAbZ9FYTa/0/lIaUUpRoA2gJQwj97yc/FV4UQJSGlFKUZS4=

$$$$
3
     RDKit          3D

 42 45  0  0  1  0  0  0  0  0999 V2000
   18.7905   -2.3380   -0.7064 C   0  0  0  0  0  0  0  0  0  0  0  0
   16.5171   -3.0307   -1.5786 C   0  0  0  0  0  0  0  0  0  0  0  0
   18.0081   -3.4144   -1.4765 C   0  0  0  0  0  0  0  0  0  0  0  0
   18.2209   -4.8140   -0.8207 C   0  0  0  0  0  0  0  0  0  0  0  0
   18.6413   -3.6096   -2.8456 C   0  0  0  0  0  0  0  0  0  0  0  0
   18.6085   -2.7607   -3.9493 C   0  0  0  0  0  0  0  0  0  0  0  0
   19.3298   -3.1216   -5.0998 C   0  0  0  0  0  0  0  0  0  0  0  0
   19.3040   -2.2180   -6.3066 C   0  0  0  0  0  0  0  0  0  0  0  0
   20.3420   -1.6674   -6.6704 O   0  0  0  0  0  0  0  0  0  0  0  0
   18.1271   -2.0795   -6.9527 N   0  0  0  0  0  0  0  0  0  0  0  0
   17.9369   -1.1747   -8.0908 C   0  0  0  0  0  0  0  0  0  0  0  0
   16.7801   -1.8132   -8.8111 C   0  0  0  0  0  0  0  0  0  0  0  0
   16.3121   -1.5604  -10.0965 C   0  0  0  0  0  0  0  0  0  0  0  0
   15.2519   -2.3388  -10.5755 C   0  0  0  0  0  0  0  0  0  0  0  0
   14.6932   -3.3524   -9.7855 C   0  0  0  0  0  0  0  0  0  0  0  0
   15.1811   -3.5934   -8.4975 C   0  0  0  0  0  0  0  0  0  0  0  0
   16.2153   -2.7932   -8.0252 C   0  0  0  0  0  0  0  0  0  0  0  0
   16.9131   -2.8603   -6.6954 C   0  0  0  0  0  0  0  0  0  0  0  0
   20.0744   -4.3212   -5.1041 C   0  0  0  0  0  0  0  0  0  0  0  0
   20.7895   -4.7057   -6.2038 O   0  0  0  0  0  0  0  0  0  0  0  0
   20.0906   -5.1601   -3.9854 C   0  0  0  0  0  0  0  0  0  0  0  0
   19.3581   -4.7818   -2.8708 C   0  0  0  0  0  0  0  0  0  0  0  0
   19.1980   -5.4579   -1.6781 O   0  0  0  0  0  0  0  0  0  0  0  0
   19.8340   -2.6207   -0.5626 H   0  0  0  0  0  0  0  0  0  0  0  0
   18.7822   -1.3973   -1.2537 H   0  0  0  0  0  0  0  0  0  0  0  0
   18.3595   -2.1556    0.2775 H   0  0  0  0  0  0  0  0  0  0  0  0
   15.9404   -3.7785   -2.1217 H   0  0  0  0  0  0  0  0  0  0  0  0
   16.0698   -2.9210   -0.5922 H   0  0  0  0  0  0  0  0  0  0  0  0
   16.3806   -2.0794   -2.0947 H   0  0  0  0  0  0  0  0  0  0  0  0
   18.6015   -4.7448    0.1976 H   0  0  0  0  0  0  0  0  0  0  0  0
   17.3081   -5.4054   -0.8010 H   0  0  0  0  0  0  0  0  0  0  0  0
   18.0466   -1.8380   -3.9070 H   0  0  0  0  0  0  0  0  0  0  0  0
   17.6768   -0.1712   -7.7558 H   0  0  0  0  0  0  0  0  0  0  0  0
   18.8161   -1.1287   -8.7337 H   0  0  0  0  0  0  0  0  0  0  0  0
   16.7543   -0.7870  -10.7053 H   0  0  0  0  0  0  0  0  0  0  0  0
   14.8593   -2.1695  -11.5630 H   0  0  0  0  0  0  0  0  0  0  0  0
   13.8855   -3.9539  -10.1753 H   0  0  0  0  0  0  0  0  0  0  0  0
   14.7700   -4.3814   -7.8875 H   0  0  0  0  0  0  0  0  0  0  0  0
   17.1223   -3.8931   -6.4130 H   0  0  0  0  0  0  0  0  0  0  0  0
   16.3031   -2.3879   -5.9252 H   0  0  0  0  0  0  0  0  0  0  0  0
   21.4094   -5.4224   -6.0144 H   0  0  0  0  0  0  0  0  0  0  0  0
   20.6443   -6.0864   -3.9860 H   0  0  0  0  0  0  0  0  0  0  0  0
  1  3  1  0
  1 24  1  0
  1 25  1  0
  1 26  1  0
  2  3  1  0
  2 27  1  0
  2 28  1  0
  2 29  1  0
  3  4  1  0
  3  5  1  0
  4 23  1  0
  4 30  1  0
  4 31  1  0
  5  6  1  0
  5 22  2  0
  6  7  2  0
  6 32  1  0
  7  8  1  0
  7 19  1  0
  8  9  2  0
  8 10  1  0
 10 11  1  0
 10 18  1  0
 11 12  1  0
 11 33  1  0
 11 34  1  0
 12 13  1  0
 12 17  2  0
 13 14  2  0
 13 35  1  0
 14 15  1  0
 14 36  1  0
 15 16  2  0
 15 37  1  0
 16 17  1  0
 16 38  1  0
 17 18  1  0
 18 39  1  0
 18 40  1  0
 19 20  1  0
 19 21  2  0
 20 41  1  0
 21 22  1  0
 21 42  1  0
 22 23  1  0
M  END
>  <r_exp_dg>  (3) 
-8.08

>  <experimental dG reference units>  (3) 
kcal/mol

>  <experimental dG reference field>  (3) 
r_exp_dg

>  <kJ/mol experimental dG>  (3) 
-33.80672

>  <kcal/mol experimental dG>  (3) 
-8.08

>  <AmberAM1BCCCache>  (3) 
gASVeQMAAAAAAABdlCiMFm51bXB5Ll9jb3JlLm11bHRpYXJyYXmUjAZzY2FsYXKUk5SMBW51bXB5lIwFZHR5cGWUk5SMAmY4lImIh5RSlChLA4wBPJROTk5K/////0r/////SwB0lGJDCFV6vlGeDPC/lIaUUpRoA2gJQwhVer5Rngzwv5SGlFKUaANoCUMIYyzr0nWrxL+UhpRSlGgDaAlDCPS5x23ntPY/lIaUUpRoA2gJQwg50sFSiGoCwJSGlFKUaANoCUMI4QaMaMEjqL+UhpRSlGgDaAlDCEUgDZAsYwPAlIaUUpRoA2gJQwiUfhH5b1QgQJSGlFKUaANoCUMIgjWj966fHMCUhpRSlGgDaAlDCM0yKbqilRXAlIaUUpRoA2gJQwgt1Uf+jbT5P5SGlFKUaANoCUMIHFUz7XOT87+UhpRSlGgDaAlDCBVy4FFedvS/lIaUUpRoA2gJQwjgFVKn0yP4v5SGlFKUaANoCUMI4BVSp9Mj+L+UhpRSlGgDaAlDCBVy4FFedvS/lIaUUpRoA2gJQwgcVTPtc5Pzv5SGlFKUaANoCUMILdVH/o20+T+UhpRSlGgDaAlDCMrR98wB7QFAlIaUUpRoA2gJQwiMxPxON+sWwJSGlFKUaANoCUMII+hxzSCrB8CUhpRSlGgDaAlDCEH1VV3oggBAlIaUUpRoA2gJQwgrfQteF/oNwJSGlFKUaANoCUMIOTBCLItr4D+UhpRSlGgDaAlDCDkwQiyLa+A/lIaUUpRoA2gJQwg5MEIsi2vgP5SGlFKUaANoCUMIOTBCLItr4D+UhpRSlGgDaAlDCDkwQiyLa+A/lIaUUpRoA2gJQwg5MEIsi2vgP5SGlFKUaANoCUMIRBzP8Gxn6D+UhpRSlGgDaAlDCEQcz/BsZ+g/lIaUUpRoA2gJQwg5qzhCq2v9P5SGlFKUaANoCUMIQwJ5D/dw6T+UhpRSlGgDaAlDCEMCeQ/3cOk/lIaUUpRoA2gJQwi0AkOVfe75P5SGlFKUaANoCUMIWBrXShf9+D+UhpRSlGgDaAlDCFga10oX/fg/lIaUUpRoA2gJQwi0AkOVfe75P5SGlFKUaANoCUMIQwJ5D/dw6T+UhpRSlGgDaAlDCEMCeQ/3cOk/lIaUUpRoA2gJQwih6z69zxUUQJSGlFKUaANoCUMIOas4Qqtr/T+UhpRSlGUu

$$$$
2
     RDKit          3D

 44 46  0  0  1  0  0  0  0  0999 V2000
   16.6777   -3.2728   -1.6922 C   0  0  0  0  0  0  0  0  0  0  0  0
   18.1655   -3.6190   -1.4833 C   0  0  0  0  0  0  0  0  0  0  0  0
   18.9162   -2.4767   -0.7819 C   0  0  0  0  0  0  0  0  0  0  0  0
   18.8794   -4.0149   -2.7826 C   0  0  0  0  0  0  0  0  0  0  0  0
   18.7414   -3.2011   -3.9164 C   0  0  0  0  0  0  0  0  0  0  0  0
   19.3997   -3.5063   -5.1105 C   0  0  0  0  0  0  0  0  0  0  0  0
   19.2355   -2.6114   -6.3112 C   0  0  0  0  0  0  0  0  0  0  0  0
   20.1894   -1.9283   -6.6812 O   0  0  0  0  0  0  0  0  0  0  0  0
   18.0456   -2.6327   -6.9499 N   0  0  0  0  0  0  0  0  0  0  0  0
   17.7610   -1.7776   -8.1057 C   0  0  0  0  0  0  0  0  0  0  0  0
   16.6081   -2.4884   -8.7602 C   0  0  0  0  0  0  0  0  0  0  0  0
   16.0649   -2.2733  -10.0237 C   0  0  0  0  0  0  0  0  0  0  0  0
   14.9980   -3.0837  -10.4301 C   0  0  0  0  0  0  0  0  0  0  0  0
   14.5028   -4.0865   -9.5837 C   0  0  0  0  0  0  0  0  0  0  0  0
   15.0694   -4.2953   -8.3199 C   0  0  0  0  0  0  0  0  0  0  0  0
   16.1226   -3.4743   -7.9281 C   0  0  0  0  0  0  0  0  0  0  0  0
   16.9085   -3.5107   -6.6437 C   0  0  0  0  0  0  0  0  0  0  0  0
   20.2294   -4.6300   -5.1569 C   0  0  0  0  0  0  0  0  0  0  0  0
   20.9173   -4.9694   -6.2888 O   0  0  0  0  0  0  0  0  0  0  0  0
   20.3776   -5.4389   -4.0373 C   0  0  0  0  0  0  0  0  0  0  0  0
   19.7038   -5.1541   -2.8407 C   0  0  0  0  0  0  0  0  0  0  0  0
   19.8096   -5.9537   -1.7170 O   0  0  0  0  0  0  0  0  0  0  0  0
   20.7380   -7.0335   -1.7180 C   0  0  0  0  0  0  0  0  0  0  0  0
   16.1364   -4.1023   -2.1430 H   0  0  0  0  0  0  0  0  0  0  0  0
   16.1965   -3.0479   -0.7420 H   0  0  0  0  0  0  0  0  0  0  0  0
   16.5358   -2.4018   -2.3310 H   0  0  0  0  0  0  0  0  0  0  0  0
   18.1758   -4.4696   -0.8011 H   0  0  0  0  0  0  0  0  0  0  0  0
   19.9521   -2.7443   -0.5760 H   0  0  0  0  0  0  0  0  0  0  0  0
   18.9213   -1.5828   -1.4005 H   0  0  0  0  0  0  0  0  0  0  0  0
   18.4503   -2.2076    0.1641 H   0  0  0  0  0  0  0  0  0  0  0  0
   18.1291   -2.3127   -3.8686 H   0  0  0  0  0  0  0  0  0  0  0  0
   17.4620   -0.7797   -7.7855 H   0  0  0  0  0  0  0  0  0  0  0  0
   18.6139   -1.7006   -8.7801 H   0  0  0  0  0  0  0  0  0  0  0  0
   16.4499   -1.4977  -10.6690 H   0  0  0  0  0  0  0  0  0  0  0  0
   14.5507   -2.9381  -11.4021 H   0  0  0  0  0  0  0  0  0  0  0  0
   13.6804   -4.7054   -9.9112 H   0  0  0  0  0  0  0  0  0  0  0  0
   14.7004   -5.0723   -7.6675 H   0  0  0  0  0  0  0  0  0  0  0  0
   17.2217   -4.5270   -6.4038 H   0  0  0  0  0  0  0  0  0  0  0  0
   16.3106   -3.1151   -5.8230 H   0  0  0  0  0  0  0  0  0  0  0  0
   21.5930   -5.6408   -6.1253 H   0  0  0  0  0  0  0  0  0  0  0  0
   21.0240   -6.2975   -4.1191 H   0  0  0  0  0  0  0  0  0  0  0  0
   20.6623   -7.5777   -0.7809 H   0  0  0  0  0  0  0  0  0  0  0  0
   20.5338   -7.7393   -2.5184 H   0  0  0  0  0  0  0  0  0  0  0  0
   21.7642   -6.6805   -1.8221 H   0  0  0  0  0  0  0  0  0  0  0  0
  1  2  1  0
  1 24  1  0
  1 25  1  0
  1 26  1  0
  2  3  1  0
  2  4  1  0
  2 27  1  0
  3 28  1  0
  3 29  1  0
  3 30  1  0
  4  5  2  0
  4 21  1  0
  5  6  1  0
  5 31  1  0
  6  7  1  0
  6 18  2  0
  7  8  2  0
  7  9  1  0
  9 10  1  0
  9 17  1  0
 10 11  1  0
 10 32  1  0
 10 33  1  0
 11 12  1  0
 11 16  2  0
 12 13  2  0
 12 34  1  0
 13 14  1  0
 13 35  1  0
 14 15  2  0
 14 36  1  0
 15 16  1  0
 15 37  1  0
 16 17  1  0
 17 38  1  0
 17 39  1  0
 18 19  1  0
 18 20  1  0
 19 40  1  0
 20 21  2  0
 20 41  1  0
 21 22  1  0
 22 23  1  0
 23 42  1  0
 23 43  1  0
 23 44  1  0
M  END
>  <r_exp_dg>  (4) 
-10.74

>  <experimental dG reference units>  (4) 
kcal/mol

>  <experimental dG reference field>  (4) 
r_exp_dg

>  <kJ/mol experimental dG>  (4) 
-44.93616

>  <kcal/mol experimental dG>  (4) 
-10.74

>  <AmberAM1BCCCache>  (4) 
gASVnwMAAAAAAABdlCiMFm51bXB5Ll9jb3JlLm11bHRpYXJyYXmUjAZzY2FsYXKUk5SMBW51bXB5lIwFZHR5cGWUk5SMAmY4lImIh5RSlChLA4wBPJROTk5K/////0r/////SwB0lGJDCBUdDeyssvC/lIaUUpRoA2gJQwgZIJqRryTHv5SGlFKUaANoCUMIFR0N7Kyy8L+UhpRSlGgDaAlDCKWBnfuB8Pi/lIaUUpRoA2gJQwiGe6KkZZTVv5SGlFKUaANoCUMIM48tAHSIAsCUhpRSlGgDaAlDCMJoborETiBAlIaUUpRoA2gJQwiyZIwW0IYcwJSGlFKUaANoCUMIoV9QreeUFcCUhpRSlGgDaAlDCD0kbV1Wn/k/lIaUUpRoA2gJQwhpCNC5h5Dzv5SGlFKUaANoCUMIYiV9HnJz9L+UhpRSlGgDaAlDCNDGLEgLOfi/lIaUUpRoA2gJQwjQxixICzn4v5SGlFKUaANoCUMIYiV9HnJz9L+UhpRSlGgDaAlDCGkI0LmHkPO/lIaUUpRoA2gJQwg9JG1dVp/5P5SGlFKUaANoCUMIOn/vaQymAUCUhpRSlGgDaAlDCF/xI0J86hbAlIaUUpRoA2gJQwiTy9snqmAMwJSGlFKUaANoCUMIDou5RFktAUCUhpRSlGgDaAlDCF3NUZUwWQ7AlIaUUpRoA2gJQwiX/I2ayhP1P5SGlFKUaANoCUMIq+tg6OF62z+UhpRSlGgDaAlDCKvrYOjhets/lIaUUpRoA2gJQwir62Do4XrbP5SGlFKUaANoCUMIYoZt7BFQ6j+UhpRSlGgDaAlDCKvrYOjhets/lIaUUpRoA2gJQwir62Do4XrbP5SGlFKUaANoCUMIq+tg6OF62z+UhpRSlGgDaAlDCOv3m3WXbv0/lIaUUpRoA2gJQwipmz92z3bpP5SGlFKUaANoCUMIqZs/ds926T+UhpRSlGgDaAlDCMNRaPRF2fk/lIaUUpRoA2gJQwgLZzp+AwD5P5SGlFKUaANoCUMIC2c6fgMA+T+UhpRSlGgDaAlDCMNRaPRF2fk/lIaUUpRoA2gJQwipmz92z3bpP5SGlFKUaANoCUMIqZs/ds926T+UhpRSlGgDaAlDCIjDmyFD5hNAlIaUUpRoA2gJQwjYPliWZJr6P5SGlFKUaANoCUMIhahsLlnD4T+UhpRSlGgDaAlDCIWobC5Zw+E/lIaUUpRoA2gJQwiFqGwuWcPhP5SGlFKUZS4=

$$$$
