22g-bindingpose1
     RDKit          3D

 33 35  0  0  0  0  0  0  0  0999 V2000
   14.3349   -0.4795   10.5653 C   0  0  0  0  0  0  0  0  0  0  0  0
   12.9060   -0.2855   10.2311 C   0  0  0  0  0  0  0  0  0  0  0  0
   10.7535   -0.3301    9.0248 C   0  0  0  0  0  0  0  0  0  0  0  0
   10.6111    0.1075   10.3357 C   0  0  0  0  0  0  0  0  0  0  0  0
   11.8336    0.1177   11.0244 C   0  0  0  0  0  0  0  0  0  0  0  0
    9.4158   -0.6233    7.8509 S   0  0  0  0  0  6  0  0  0  0  0  0
    8.6915    0.6438    7.7066 O   0  0  0  0  0  0  0  0  0  0  0  0
    9.9975   -1.3084    6.6953 O   0  0  0  0  0  0  0  0  0  0  0  0
    8.3394   -1.8463    8.7737 C   0  0  0  0  0  0  0  0  0  0  0  0
    9.4667    0.5095   11.2358 C   0  0  1  0  0  0  0  0  0  0  0  0
   10.1202    0.5960   12.6307 C   0  0  0  0  0  0  0  0  0  0  0  0
   11.6426    0.5559   12.4531 C   0  0  0  0  0  0  0  0  0  0  0  0
    8.9486    1.7279   10.7317 O   0  0  0  0  0  0  0  0  0  0  0  0
   12.4043   -0.6285    8.6100 S   0  0  0  0  0  0  0  0  0  0  0  0
    9.7807    1.7291   13.2472 F   0  0  0  0  0  0  0  0  0  0  0  0
    9.7320   -0.4360   13.3814 F   0  0  0  0  0  0  0  0  0  0  0  0
   15.2820    0.4557   10.1452 C   0  0  0  0  0  0  0  0  0  0  0  0
   16.6330    0.2650   10.4188 C   0  0  0  0  0  0  0  0  0  0  0  0
   17.0471   -0.8766   11.1028 C   0  0  0  0  0  0  0  0  0  0  0  0
   16.1073   -1.8094   11.5386 C   0  0  0  0  0  0  0  0  0  0  0  0
   14.7514   -1.6088   11.2756 C   0  0  0  0  0  0  0  0  0  0  0  0
   17.5338    1.1911   10.0225 F   0  0  0  0  0  0  0  0  0  0  0  0
   16.6176   -3.2119   12.4031 Cl  0  0  0  0  0  0  0  0  0  0  0  0
    7.7955   -2.4396    8.0435 H   0  0  0  0  0  0  0  0  0  0  0  0
    7.6476   -1.3018    9.4112 H   0  0  0  0  0  0  0  0  0  0  0  0
    8.9811   -2.4976    9.3646 H   0  0  0  0  0  0  0  0  0  0  0  0
    8.6693   -0.2310   11.2458 H   0  0  0  0  0  0  0  0  0  0  0  0
   12.0804    1.5435   12.6027 H   0  0  0  0  0  0  0  0  0  0  0  0
   12.1176   -0.1255   13.1596 H   0  0  0  0  0  0  0  0  0  0  0  0
    8.2302    2.0274   11.3003 H   0  0  0  0  0  0  0  0  0  0  0  0
   14.9707    1.3338    9.5980 H   0  0  0  0  0  0  0  0  0  0  0  0
   18.0965   -1.0273   11.3088 H   0  0  0  0  0  0  0  0  0  0  0  0
   14.0275   -2.3408   11.6033 H   0  0  0  0  0  0  0  0  0  0  0  0
  1  2  1  0
  1 17  2  0
  1 21  1  0
  2  5  2  0
  2 14  1  0
  3  4  2  0
  3  6  1  0
  3 14  1  0
  4  5  1  0
  4 10  1  0
  5 12  1  0
  6  7  2  0
  6  8  2  0
  6  9  1  0
  9 24  1  0
  9 25  1  0
  9 26  1  0
 10 11  1  0
 10 13  1  0
 10 27  1  1
 11 12  1  0
 11 15  1  0
 11 16  1  0
 12 28  1  0
 12 29  1  0
 13 30  1  0
 17 18  1  0
 17 31  1  0
 18 19  2  0
 18 22  1  0
 19 20  1  0
 19 32  1  0
 20 21  2  0
 20 23  1  0
 21 33  1  0
M  END
>  <Protein/Binding/ITC_Mean_KD_uM_HIF2a_240-350_human;(Num)>  (1) 
0.094

>  <atom.dprop.PartialCharge>  (1) 
0.047243275 -0.096796155 -0.45593643 -0.02219478 -0.12679219 1.4485176 -0.655039 -0.655039 -0.36741742 0.17394577 0.40178195 -0.033385348 -0.56963265 0.32626787 -0.22916746 -0.22916746 -0.15729374 0.14459667 -0.15770087 0.036235105 -0.123516776 -0.13488796 -0.08177368 0.11585607 0.11585607 0.11585607 0.09038771 0.08674085 0.08674085 0.415176 0.16247222 0.16694385 0.16112277

>  <experimental dG reference units>  (1) 
uM

>  <experimental dG reference field>  (1) 
Protein/Binding/ITC_Mean_KD_uM_HIF2a_240-350_human;(Num)

>  <kJ/mol experimental dG>  (1) 
-40.35856522293325

>  <kcal/mol experimental dG>  (1) 
-9.64592859056722

$$$$
22g-bindingpose2
     RDKit          3D

 33 35  0  0  0  0  0  0  0  0999 V2000
   14.3349   -0.4795   10.5653 C   0  0  0  0  0  0  0  0  0  0  0  0
   12.9060   -0.2855   10.2311 C   0  0  0  0  0  0  0  0  0  0  0  0
   10.7535   -0.3301    9.0248 C   0  0  0  0  0  0  0  0  0  0  0  0
   10.6111    0.1075   10.3357 C   0  0  0  0  0  0  0  0  0  0  0  0
   11.8336    0.1177   11.0244 C   0  0  0  0  0  0  0  0  0  0  0  0
    9.4158   -0.6233    7.8509 S   0  0  0  0  0  6  0  0  0  0  0  0
    8.6915    0.6438    7.7066 O   0  0  0  0  0  0  0  0  0  0  0  0
    9.9975   -1.3084    6.6953 O   0  0  0  0  0  0  0  0  0  0  0  0
    8.3394   -1.8463    8.7737 C   0  0  0  0  0  0  0  0  0  0  0  0
    9.4667    0.5095   11.2358 C   0  0  1  0  0  0  0  0  0  0  0  0
   10.1202    0.5960   12.6307 C   0  0  0  0  0  0  0  0  0  0  0  0
   11.6426    0.5559   12.4531 C   0  0  0  0  0  0  0  0  0  0  0  0
    8.9486    1.7279   10.7317 O   0  0  0  0  0  0  0  0  0  0  0  0
   12.4043   -0.6285    8.6100 S   0  0  0  0  0  0  0  0  0  0  0  0
    9.7807    1.7291   13.2472 F   0  0  0  0  0  0  0  0  0  0  0  0
    9.7320   -0.4360   13.3814 F   0  0  0  0  0  0  0  0  0  0  0  0
   14.7381   -1.6164   11.2675 C   0  0  0  0  0  0  0  0  0  0  0  0
   16.0722   -1.7916   11.6221 C   0  0  0  0  0  0  0  0  0  0  0  0
   17.0116   -0.8173   11.2891 C   0  0  0  0  0  0  0  0  0  0  0  0
   16.6209    0.3148   10.5758 C   0  0  0  0  0  0  0  0  0  0  0  0
   15.2848    0.4815   10.2086 C   0  0  0  0  0  0  0  0  0  0  0  0
   16.4482   -2.9083   12.2838 F   0  0  0  0  0  0  0  0  0  0  0  0
   17.7869    1.5108   10.1457 Cl  0  0  0  0  0  0  0  0  0  0  0  0
    7.7955   -2.4396    8.0435 H   0  0  0  0  0  0  0  0  0  0  0  0
    7.6476   -1.3018    9.4112 H   0  0  0  0  0  0  0  0  0  0  0  0
    8.9811   -2.4976    9.3646 H   0  0  0  0  0  0  0  0  0  0  0  0
    8.6693   -0.2310   11.2458 H   0  0  0  0  0  0  0  0  0  0  0  0
   12.0804    1.5435   12.6027 H   0  0  0  0  0  0  0  0  0  0  0  0
   12.1176   -0.1255   13.1596 H   0  0  0  0  0  0  0  0  0  0  0  0
    8.2302    2.0274   11.3003 H   0  0  0  0  0  0  0  0  0  0  0  0
   14.0126   -2.3671   11.5457 H   0  0  0  0  0  0  0  0  0  0  0  0
   18.0457   -0.9507   11.5707 H   0  0  0  0  0  0  0  0  0  0  0  0
   14.9838    1.3668    9.6675 H   0  0  0  0  0  0  0  0  0  0  0  0
  1  2  1  0
  1 17  2  0
  1 21  1  0
  2  5  2  0
  2 14  1  0
  3  4  2  0
  3  6  1  0
  3 14  1  0
  4  5  1  0
  4 10  1  0
  5 12  1  0
  6  7  2  0
  6  8  2  0
  6  9  1  0
  9 24  1  0
  9 25  1  0
  9 26  1  0
 10 11  1  0
 10 13  1  0
 10 27  1  1
 11 12  1  0
 11 15  1  0
 11 16  1  0
 12 28  1  0
 12 29  1  0
 13 30  1  0
 17 18  1  0
 17 31  1  0
 18 19  2  0
 18 22  1  0
 19 20  1  0
 19 32  1  0
 20 21  2  0
 20 23  1  0
 21 33  1  0
M  END
>  <Protein/Binding/ITC_Mean_KD_uM_HIF2a_240-350_human;(Num)>  (2) 
0.094

>  <atom.dprop.PartialCharge>  (2) 
0.047243275 -0.096796155 -0.45593643 -0.02219478 -0.12679219 1.4485176 -0.655039 -0.655039 -0.36741742 0.17394577 0.40178195 -0.033385348 -0.56963265 0.32626787 -0.22916746 -0.22916746 -0.15729374 0.14459667 -0.15770087 0.036235105 -0.123516776 -0.13488796 -0.08177368 0.11585607 0.11585607 0.11585607 0.09038771 0.08674085 0.08674085 0.415176 0.16247222 0.16694385 0.16112277

>  <experimental dG reference units>  (2) 
uM

>  <experimental dG reference field>  (2) 
Protein/Binding/ITC_Mean_KD_uM_HIF2a_240-350_human;(Num)

>  <kJ/mol experimental dG>  (2) 
-40.35856522293325

>  <kcal/mol experimental dG>  (2) 
-9.64592859056722

$$$$
22b-bindingpose1
     RDKit          3D

 33 35  0  0  0  0  0  0  0  0999 V2000
   14.3349   -0.4795   10.5653 C   0  0  0  0  0  0  0  0  0  0  0  0
   12.9060   -0.2855   10.2311 C   0  0  0  0  0  0  0  0  0  0  0  0
   10.7535   -0.3301    9.0248 C   0  0  0  0  0  0  0  0  0  0  0  0
   10.6111    0.1075   10.3357 C   0  0  0  0  0  0  0  0  0  0  0  0
   11.8336    0.1177   11.0244 C   0  0  0  0  0  0  0  0  0  0  0  0
    9.4158   -0.6233    7.8509 S   0  0  0  0  0  6  0  0  0  0  0  0
    8.6915    0.6438    7.7066 O   0  0  0  0  0  0  0  0  0  0  0  0
    9.9975   -1.3084    6.6953 O   0  0  0  0  0  0  0  0  0  0  0  0
    8.3394   -1.8463    8.7737 C   0  0  0  0  0  0  0  0  0  0  0  0
    9.4667    0.5095   11.2358 C   0  0  1  0  0  0  0  0  0  0  0  0
   10.1202    0.5960   12.6307 C   0  0  0  0  0  0  0  0  0  0  0  0
   11.6426    0.5559   12.4531 C   0  0  0  0  0  0  0  0  0  0  0  0
    8.9486    1.7279   10.7317 O   0  0  0  0  0  0  0  0  0  0  0  0
   12.4043   -0.6285    8.6100 S   0  0  0  0  0  0  0  0  0  0  0  0
    9.7807    1.7291   13.2472 F   0  0  0  0  0  0  0  0  0  0  0  0
    9.7320   -0.4360   13.3814 F   0  0  0  0  0  0  0  0  0  0  0  0
   15.2820    0.4557   10.1452 C   0  0  0  0  0  0  0  0  0  0  0  0
   16.6330    0.2650   10.4188 C   0  0  0  0  0  0  0  0  0  0  0  0
   17.0471   -0.8766   11.1028 C   0  0  0  0  0  0  0  0  0  0  0  0
   16.1073   -1.8094   11.5386 C   0  0  0  0  0  0  0  0  0  0  0  0
   14.7514   -1.6088   11.2756 C   0  0  0  0  0  0  0  0  0  0  0  0
   18.3612   -1.0845   11.3464 F   0  0  0  0  0  0  0  0  0  0  0  0
   17.5338    1.1911   10.0225 F   0  0  0  0  0  0  0  0  0  0  0  0
    7.7955   -2.4396    8.0435 H   0  0  0  0  0  0  0  0  0  0  0  0
    7.6476   -1.3018    9.4112 H   0  0  0  0  0  0  0  0  0  0  0  0
    8.9811   -2.4976    9.3646 H   0  0  0  0  0  0  0  0  0  0  0  0
    8.6543   -0.2188   11.2370 H   0  0  0  0  0  0  0  0  0  0  0  0
   12.0518    1.5509   12.6320 H   0  0  0  0  0  0  0  0  0  0  0  0
   12.1051   -0.1228   13.1711 H   0  0  0  0  0  0  0  0  0  0  0  0
    8.2302    2.0274   11.3003 H   0  0  0  0  0  0  0  0  0  0  0  0
   14.9777    1.3341    9.5955 H   0  0  0  0  0  0  0  0  0  0  0  0
   16.4285   -2.6864   12.0812 H   0  0  0  0  0  0  0  0  0  0  0  0
   14.0306   -2.3308   11.6306 H   0  0  0  0  0  0  0  0  0  0  0  0
  1  2  1  0
  1 17  2  0
  1 21  1  0
  2  5  2  0
  2 14  1  0
  3  4  2  0
  3  6  1  0
  3 14  1  0
  4  5  1  0
  4 10  1  0
  5 12  1  0
  6  7  2  0
  6  8  2  0
  6  9  1  0
  9 24  1  0
  9 25  1  0
  9 26  1  0
 10 11  1  0
 10 13  1  0
 10 27  1  1
 11 12  1  0
 11 15  1  0
 11 16  1  0
 12 28  1  0
 12 29  1  0
 13 30  1  0
 17 18  1  0
 17 31  1  0
 18 19  2  0
 18 23  1  0
 19 20  1  0
 19 22  1  0
 20 21  2  0
 20 32  1  0
 21 33  1  0
M  END
>  <Protein/Binding/ITC_Mean_KD_uM_HIF2a_240-350_human;(Num)>  (3) 
0.82999999999999996

>  <atom.dprop.PartialCharge>  (3) 
0.015438896 -0.09225258 -0.45719606 -0.022993885 -0.1288329 1.4485902 -0.6549663 -0.6549663 -0.3673447 0.17401849 0.40185466 -0.034169424 -0.56955993 0.3262454 -0.22909471 -0.22909471 -0.12760282 0.09392164 0.106723964 -0.14588381 -0.101951554 -0.120669685 -0.12499973 0.11592879 0.11592879 0.11592879 0.090460435 0.086813584 0.086813584 0.41524872 0.16160159 0.15682605 0.14923528

>  <experimental dG reference units>  (3) 
uM

>  <experimental dG reference field>  (3) 
Protein/Binding/ITC_Mean_KD_uM_HIF2a_240-350_human;(Num)

>  <kJ/mol experimental dG>  (3) 
-34.92553703999371

>  <kcal/mol experimental dG>  (3) 
-8.347403690247063

$$$$
22b-bindingpose2
     RDKit          3D

 33 35  0  0  0  0  0  0  0  0999 V2000
   14.3349   -0.4795   10.5653 C   0  0  0  0  0  0  0  0  0  0  0  0
   12.9060   -0.2855   10.2311 C   0  0  0  0  0  0  0  0  0  0  0  0
   10.7535   -0.3301    9.0248 C   0  0  0  0  0  0  0  0  0  0  0  0
   10.6111    0.1075   10.3357 C   0  0  0  0  0  0  0  0  0  0  0  0
   11.8336    0.1177   11.0244 C   0  0  0  0  0  0  0  0  0  0  0  0
    9.4158   -0.6233    7.8509 S   0  0  0  0  0  6  0  0  0  0  0  0
    8.6915    0.6438    7.7066 O   0  0  0  0  0  0  0  0  0  0  0  0
    9.9975   -1.3084    6.6953 O   0  0  0  0  0  0  0  0  0  0  0  0
    8.3394   -1.8463    8.7737 C   0  0  0  0  0  0  0  0  0  0  0  0
    9.4667    0.5095   11.2358 C   0  0  1  0  0  0  0  0  0  0  0  0
   10.1202    0.5960   12.6307 C   0  0  0  0  0  0  0  0  0  0  0  0
   11.6426    0.5559   12.4531 C   0  0  0  0  0  0  0  0  0  0  0  0
    8.9486    1.7279   10.7317 O   0  0  0  0  0  0  0  0  0  0  0  0
   12.4043   -0.6285    8.6100 S   0  0  0  0  0  0  0  0  0  0  0  0
    9.7807    1.7291   13.2472 F   0  0  0  0  0  0  0  0  0  0  0  0
    9.7320   -0.4360   13.3814 F   0  0  0  0  0  0  0  0  0  0  0  0
   14.7347   -1.6039   11.2893 C   0  0  0  0  0  0  0  0  0  0  0  0
   16.0690   -1.7783   11.6438 C   0  0  0  0  0  0  0  0  0  0  0  0
   17.0120   -0.8153   11.2886 C   0  0  0  0  0  0  0  0  0  0  0  0
   16.6247    0.3040   10.5535 C   0  0  0  0  0  0  0  0  0  0  0  0
   15.2883    0.4696   10.1867 C   0  0  0  0  0  0  0  0  0  0  0  0
   18.3056   -0.9622   11.6552 F   0  0  0  0  0  0  0  0  0  0  0  0
   16.4416   -2.8831   12.3268 F   0  0  0  0  0  0  0  0  0  0  0  0
    7.7955   -2.4396    8.0435 H   0  0  0  0  0  0  0  0  0  0  0  0
    7.6476   -1.3018    9.4112 H   0  0  0  0  0  0  0  0  0  0  0  0
    8.9811   -2.4976    9.3646 H   0  0  0  0  0  0  0  0  0  0  0  0
    8.6543   -0.2188   11.2370 H   0  0  0  0  0  0  0  0  0  0  0  0
   12.0518    1.5509   12.6320 H   0  0  0  0  0  0  0  0  0  0  0  0
   12.1051   -0.1228   13.1711 H   0  0  0  0  0  0  0  0  0  0  0  0
    8.2302    2.0274   11.3003 H   0  0  0  0  0  0  0  0  0  0  0  0
   14.0114   -2.3473   11.5898 H   0  0  0  0  0  0  0  0  0  0  0  0
   17.3592    1.0421   10.2666 H   0  0  0  0  0  0  0  0  0  0  0  0
   15.0020    1.3335    9.6047 H   0  0  0  0  0  0  0  0  0  0  0  0
  1  2  1  0
  1 17  2  0
  1 21  1  0
  2  5  2  0
  2 14  1  0
  3  4  2  0
  3  6  1  0
  3 14  1  0
  4  5  1  0
  4 10  1  0
  5 12  1  0
  6  7  2  0
  6  8  2  0
  6  9  1  0
  9 24  1  0
  9 25  1  0
  9 26  1  0
 10 11  1  0
 10 13  1  0
 10 27  1  1
 11 12  1  0
 11 15  1  0
 11 16  1  0
 12 28  1  0
 12 29  1  0
 13 30  1  0
 17 18  1  0
 17 31  1  0
 18 19  2  0
 18 23  1  0
 19 20  1  0
 19 22  1  0
 20 21  2  0
 20 32  1  0
 21 33  1  0
M  END
>  <Protein/Binding/ITC_Mean_KD_uM_HIF2a_240-350_human;(Num)>  (4) 
0.82999999999999996

>  <atom.dprop.PartialCharge>  (4) 
0.015438896 -0.09225258 -0.45719606 -0.022993885 -0.1288329 1.4485902 -0.6549663 -0.6549663 -0.3673447 0.17401849 0.40185466 -0.034169424 -0.56955993 0.3262454 -0.22909471 -0.22909471 -0.12760282 0.09392164 0.106723964 -0.14588381 -0.101951554 -0.120669685 -0.12499973 0.11592879 0.11592879 0.11592879 0.090460435 0.086813584 0.086813584 0.41524872 0.16160159 0.15682605 0.14923528

>  <experimental dG reference units>  (4) 
uM

>  <experimental dG reference field>  (4) 
Protein/Binding/ITC_Mean_KD_uM_HIF2a_240-350_human;(Num)

>  <kJ/mol experimental dG>  (4) 
-34.92553703999371

>  <kcal/mol experimental dG>  (4) 
-8.347403690247063

$$$$
22e-bindingpose1
     RDKit          3D

 34 36  0  0  0  0  0  0  0  0999 V2000
    9.4158   -0.6233    7.8509 S   0  0  0  0  0  6  0  0  0  0  0  0
   14.3349   -0.4795   10.5653 C   0  0  0  0  0  0  0  0  0  0  0  0
    8.9486    1.7279   10.7317 O   0  0  0  0  0  0  0  0  0  0  0  0
    9.4667    0.5095   11.2358 C   0  0  2  0  0  0  0  0  0  0  0  0
   10.1202    0.5960   12.6307 C   0  0  0  0  0  0  0  0  0  0  0  0
   11.6426    0.5559   12.4531 C   0  0  0  0  0  0  0  0  0  0  0  0
   10.6111    0.1075   10.3357 C   0  0  0  0  0  0  0  0  0  0  0  0
   11.8336    0.1177   11.0244 C   0  0  0  0  0  0  0  0  0  0  0  0
   12.9060   -0.2855   10.2311 C   0  0  0  0  0  0  0  0  0  0  0  0
   12.4043   -0.6285    8.6100 S   0  0  0  0  0  0  0  0  0  0  0  0
   10.7535   -0.3301    9.0248 C   0  0  0  0  0  0  0  0  0  0  0  0
    9.7807    1.7291   13.2472 F   0  0  0  0  0  0  0  0  0  0  0  0
    9.7320   -0.4360   13.3814 F   0  0  0  0  0  0  0  0  0  0  0  0
    9.9975   -1.3084    6.6953 O   0  0  0  0  0  0  0  0  0  0  0  0
    8.6915    0.6438    7.7066 O   0  0  0  0  0  0  0  0  0  0  0  0
    8.3394   -1.8463    8.7737 C   0  0  0  0  0  0  0  0  0  0  0  0
   15.2820    0.4557   10.1452 C   0  0  0  0  0  0  0  0  0  0  0  0
   16.6330    0.2650   10.4188 C   0  0  0  0  0  0  0  0  0  0  0  0
   17.0471   -0.8766   11.1028 C   0  0  0  0  0  0  0  0  0  0  0  0
   16.1073   -1.8094   11.5386 C   0  0  0  0  0  0  0  0  0  0  0  0
   14.7514   -1.6088   11.2756 C   0  0  0  0  0  0  0  0  0  0  0  0
   17.5338    1.1911   10.0225 F   0  0  0  0  0  0  0  0  0  0  0  0
   16.5552   -3.0314   12.2843 C   0  0  0  0  0  0  0  0  0  0  0  0
   16.8704   -3.9832   12.8615 N   0  0  0  0  0  0  0  0  0  0  0  0
    8.2302    2.0274   11.3003 H   0  0  0  0  0  0  0  0  0  0  0  0
    8.6693   -0.2311   11.2458 H   0  0  0  0  0  0  0  0  0  0  0  0
   12.0809    1.5434   12.6022 H   0  0  0  0  0  0  0  0  0  0  0  0
   12.1183   -0.1255   13.1591 H   0  0  0  0  0  0  0  0  0  0  0  0
    8.9811   -2.4976    9.3646 H   0  0  0  0  0  0  0  0  0  0  0  0
    7.7955   -2.4396    8.0435 H   0  0  0  0  0  0  0  0  0  0  0  0
    7.6476   -1.3018    9.4112 H   0  0  0  0  0  0  0  0  0  0  0  0
   14.9708    1.3334    9.5983 H   0  0  0  0  0  0  0  0  0  0  0  0
   18.0976   -1.0254   11.3062 H   0  0  0  0  0  0  0  0  0  0  0  0
   14.0252   -2.3398   11.6016 H   0  0  0  0  0  0  0  0  0  0  0  0
  1 11  1  0
  1 14  2  0
  1 15  2  0
  1 16  1  0
  2  9  1  0
  2 17  2  0
  2 21  1  0
  3  4  1  0
  3 25  1  0
  4  5  1  0
  4  7  1  0
  4 26  1  1
  5  6  1  0
  5 12  1  0
  5 13  1  0
  6  8  1  0
  6 27  1  0
  6 28  1  0
  7  8  1  0
  7 11  2  0
  8  9  2  0
  9 10  1  0
 10 11  1  0
 16 29  1  0
 16 30  1  0
 16 31  1  0
 17 18  1  0
 17 32  1  0
 18 19  2  0
 18 22  1  0
 19 20  1  0
 19 33  1  0
 20 21  2  0
 20 23  1  0
 21 34  1  0
 23 24  3  0
M  END
>  <Protein/Binding/ITC_Mean_KD_uM_HIF2a_240-350_human;(Num)>  (5) 
0.35999999999999999

>  <atom.dprop.PartialCharge>  (5) 
1.4487401 0.025942098 -0.5694097 0.17416862 0.40200478 -0.03321817 -0.022098392 -0.12680942 -0.09094435 0.32093933 -0.45523837 -0.22894454 -0.22894454 -0.6548161 -0.6548161 -0.36719453 -0.13454568 0.12439505 -0.12575346 0.010084484 -0.08489062 -0.13060333 0.23244984 -0.34728634 0.4153989 0.09061062 0.08696374 0.08696374 0.11607896 0.11607896 0.11607896 0.16380993 0.1685769 0.15622813

>  <experimental dG reference units>  (5) 
uM

>  <experimental dG reference field>  (5) 
Protein/Binding/ITC_Mean_KD_uM_HIF2a_240-350_human;(Num)

>  <kJ/mol experimental dG>  (5) 
-37.00912445558825

>  <kcal/mol experimental dG>  (5) 
-8.845393034318414

$$$$
22e-bindingpose2
     RDKit          3D

 34 36  0  0  0  0  0  0  0  0999 V2000
    9.4158   -0.6233    7.8509 S   0  0  0  0  0  6  0  0  0  0  0  0
   14.3349   -0.4795   10.5653 C   0  0  0  0  0  0  0  0  0  0  0  0
    8.9486    1.7279   10.7317 O   0  0  0  0  0  0  0  0  0  0  0  0
    9.4667    0.5095   11.2358 C   0  0  2  0  0  0  0  0  0  0  0  0
   10.1202    0.5960   12.6307 C   0  0  0  0  0  0  0  0  0  0  0  0
   11.6426    0.5559   12.4531 C   0  0  0  0  0  0  0  0  0  0  0  0
   10.6111    0.1075   10.3357 C   0  0  0  0  0  0  0  0  0  0  0  0
   11.8336    0.1177   11.0244 C   0  0  0  0  0  0  0  0  0  0  0  0
   12.9060   -0.2855   10.2311 C   0  0  0  0  0  0  0  0  0  0  0  0
   12.4043   -0.6285    8.6100 S   0  0  0  0  0  0  0  0  0  0  0  0
   10.7535   -0.3301    9.0248 C   0  0  0  0  0  0  0  0  0  0  0  0
    9.7807    1.7291   13.2472 F   0  0  0  0  0  0  0  0  0  0  0  0
    9.7320   -0.4360   13.3814 F   0  0  0  0  0  0  0  0  0  0  0  0
    9.9975   -1.3084    6.6953 O   0  0  0  0  0  0  0  0  0  0  0  0
    8.6915    0.6438    7.7066 O   0  0  0  0  0  0  0  0  0  0  0  0
    8.3394   -1.8463    8.7737 C   0  0  0  0  0  0  0  0  0  0  0  0
   14.7331   -1.5975   11.3001 C   0  0  0  0  0  0  0  0  0  0  0  0
   16.0674   -1.7714   11.6545 C   0  0  0  0  0  0  0  0  0  0  0  0
   17.0122   -0.8144   11.2883 C   0  0  0  0  0  0  0  0  0  0  0  0
   16.6265    0.2984   10.5425 C   0  0  0  0  0  0  0  0  0  0  0  0
   15.2900    0.4634   10.1758 C   0  0  0  0  0  0  0  0  0  0  0  0
   16.4383   -2.8702   12.3482 F   0  0  0  0  0  0  0  0  0  0  0  0
   17.6477    1.3209   10.1404 C   0  0  0  0  0  0  0  0  0  0  0  0
   18.4124    2.1261    9.8157 N   0  0  0  0  0  0  0  0  0  0  0  0
    8.2302    2.0274   11.3003 H   0  0  0  0  0  0  0  0  0  0  0  0
    8.6693   -0.2311   11.2458 H   0  0  0  0  0  0  0  0  0  0  0  0
   12.0809    1.5434   12.6022 H   0  0  0  0  0  0  0  0  0  0  0  0
   12.1183   -0.1255   13.1591 H   0  0  0  0  0  0  0  0  0  0  0  0
    8.9811   -2.4976    9.3646 H   0  0  0  0  0  0  0  0  0  0  0  0
    7.7955   -2.4396    8.0435 H   0  0  0  0  0  0  0  0  0  0  0  0
    7.6476   -1.3018    9.4112 H   0  0  0  0  0  0  0  0  0  0  0  0
   14.0038   -2.3339   11.6036 H   0  0  0  0  0  0  0  0  0  0  0  0
   18.0458   -0.9486   11.5724 H   0  0  0  0  0  0  0  0  0  0  0  0
   14.9899    1.3338    9.6098 H   0  0  0  0  0  0  0  0  0  0  0  0
  1 11  1  0
  1 14  2  0
  1 15  2  0
  1 16  1  0
  2  9  1  0
  2 17  2  0
  2 21  1  0
  3  4  1  0
  3 25  1  0
  4  5  1  0
  4  7  1  0
  4 26  1  1
  5  6  1  0
  5 12  1  0
  5 13  1  0
  6  8  1  0
  6 27  1  0
  6 28  1  0
  7  8  1  0
  7 11  2  0
  8  9  2  0
  9 10  1  0
 10 11  1  0
 16 29  1  0
 16 30  1  0
 16 31  1  0
 17 18  1  0
 17 32  1  0
 18 19  2  0
 18 22  1  0
 19 20  1  0
 19 33  1  0
 20 21  2  0
 20 23  1  0
 21 34  1  0
 23 24  3  0
M  END
>  <Protein/Binding/ITC_Mean_KD_uM_HIF2a_240-350_human;(Num)>  (6) 
0.35999999999999999

>  <atom.dprop.PartialCharge>  (6) 
1.4487401 0.025942098 -0.5694097 0.17416862 0.40200478 -0.03321817 -0.022098392 -0.12680942 -0.09094435 0.32093933 -0.45523837 -0.22894454 -0.22894454 -0.6548161 -0.6548161 -0.36719453 -0.13454568 0.12439505 -0.12575346 0.010084484 -0.08489062 -0.13060333 0.23244984 -0.34728634 0.4153989 0.09061062 0.08696374 0.08696374 0.11607896 0.11607896 0.11607896 0.16380993 0.1685769 0.15622813

>  <experimental dG reference units>  (6) 
uM

>  <experimental dG reference field>  (6) 
Protein/Binding/ITC_Mean_KD_uM_HIF2a_240-350_human;(Num)

>  <kJ/mol experimental dG>  (6) 
-37.00912445558825

>  <kcal/mol experimental dG>  (6) 
-8.845393034318414

$$$$
22a
     RDKit          3D

 33 35  0  0  0  0  0  0  0  0999 V2000
   12.9060   -0.2855   10.2311 C   0  0  0  0  0  0  0  0  0  0  0  0
   11.8336    0.1177   11.0244 C   0  0  0  0  0  0  0  0  0  0  0  0
   10.6111    0.1075   10.3357 C   0  0  0  0  0  0  0  0  0  0  0  0
   10.7535   -0.3301    9.0248 C   0  0  0  0  0  0  0  0  0  0  0  0
   12.4043   -0.6285    8.6100 S   0  0  0  0  0  0  0  0  0  0  0  0
   11.6426    0.5559   12.4531 C   0  0  0  0  0  0  0  0  0  0  0  0
   10.1202    0.5960   12.6307 C   0  0  0  0  0  0  0  0  0  0  0  0
    9.4667    0.5095   11.2358 C   0  0  1  0  0  0  0  0  0  0  0  0
    9.4158   -0.6233    7.8509 S   0  0  0  0  0  6  0  0  0  0  0  0
   14.3349   -0.4795   10.5653 C   0  0  0  0  0  0  0  0  0  0  0  0
    8.9486    1.7279   10.7317 O   0  0  0  0  0  0  0  0  0  0  0  0
    8.3394   -1.8463    8.7737 C   0  0  0  0  0  0  0  0  0  0  0  0
    9.9975   -1.3084    6.6953 O   0  0  0  0  0  0  0  0  0  0  0  0
    8.6915    0.6438    7.7066 O   0  0  0  0  0  0  0  0  0  0  0  0
    9.7807    1.7291   13.2472 F   0  0  0  0  0  0  0  0  0  0  0  0
    9.7320   -0.4360   13.3814 F   0  0  0  0  0  0  0  0  0  0  0  0
   15.2820    0.4557   10.1452 C   0  0  0  0  0  0  0  0  0  0  0  0
   16.6330    0.2650   10.4188 C   0  0  0  0  0  0  0  0  0  0  0  0
   17.0471   -0.8766   11.1028 C   0  0  0  0  0  0  0  0  0  0  0  0
   16.1073   -1.8094   11.5386 C   0  0  0  0  0  0  0  0  0  0  0  0
   14.7514   -1.6088   11.2756 C   0  0  0  0  0  0  0  0  0  0  0  0
   18.3614   -1.0732   11.3565 F   0  0  0  0  0  0  0  0  0  0  0  0
   12.1206   -0.1216   13.1609 H   0  0  0  0  0  0  0  0  0  0  0  0
   12.0760    1.5462   12.5982 H   0  0  0  0  0  0  0  0  0  0  0  0
    8.6709   -0.2327   11.2483 H   0  0  0  0  0  0  0  0  0  0  0  0
    8.2302    2.0274   11.3003 H   0  0  0  0  0  0  0  0  0  0  0  0
    7.7955   -2.4396    8.0435 H   0  0  0  0  0  0  0  0  0  0  0  0
    7.6476   -1.3018    9.4112 H   0  0  0  0  0  0  0  0  0  0  0  0
    8.9811   -2.4976    9.3646 H   0  0  0  0  0  0  0  0  0  0  0  0
   14.9658    1.3307    9.5957 H   0  0  0  0  0  0  0  0  0  0  0  0
   17.3641    0.9880   10.0888 H   0  0  0  0  0  0  0  0  0  0  0  0
   16.4347   -2.6878   12.0746 H   0  0  0  0  0  0  0  0  0  0  0  0
   14.0263   -2.3396   11.6023 H   0  0  0  0  0  0  0  0  0  0  0  0
  1  2  2  0
  1  5  1  0
  1 10  1  0
  2  3  1  0
  2  6  1  0
  3  4  2  0
  3  8  1  0
  4  5  1  0
  4  9  1  0
  6  7  1  0
  6 23  1  0
  6 24  1  0
  7  8  1  0
  7 15  1  0
  7 16  1  0
  8 11  1  0
  8 25  1  1
  9 12  1  0
  9 13  2  0
  9 14  2  0
 10 17  2  0
 10 21  1  0
 11 26  1  0
 12 27  1  0
 12 28  1  0
 12 29  1  0
 17 18  1  0
 17 30  1  0
 18 19  2  0
 18 31  1  0
 19 20  1  0
 19 22  1  0
 20 21  2  0
 20 32  1  0
 21 33  1  0
M  END
>  <Protein/Binding/ITC_Mean_KD_uM_HIF2a_240-350_human;(Num)>  (7) 
0.82999999999999996

>  <atom.dprop.PartialCharge>  (7) 
-0.084143385 -0.13292685 -0.023359321 -0.45797104 0.3251028 -0.034568556 0.40156996 0.17373377 1.4483056 -0.020725816 -0.5698447 -0.36762947 -0.6552511 -0.6552511 -0.22937953 -0.22937953 -0.089049086 -0.17112911 0.1451032 -0.17112911 -0.089049086 -0.13613445 0.086528815 0.086528815 0.09017567 0.41496396 0.11564402 0.11564402 0.11564402 0.14524317 0.15374511 0.15374511 0.14524317

>  <experimental dG reference units>  (7) 
uM

>  <experimental dG reference field>  (7) 
Protein/Binding/ITC_Mean_KD_uM_HIF2a_240-350_human;(Num)

>  <kJ/mol experimental dG>  (7) 
-34.92553703999371

>  <kcal/mol experimental dG>  (7) 
-8.347403690247063

$$$$
22d-bindingpose1
     RDKit          3D

 34 36  0  0  0  0  0  0  0  0999 V2000
   14.3349   -0.4795   10.5653 C   0  0  0  0  0  0  0  0  0  0  0  0
   12.9060   -0.2855   10.2311 C   0  0  0  0  0  0  0  0  0  0  0  0
   10.7535   -0.3301    9.0248 C   0  0  0  0  0  0  0  0  0  0  0  0
   10.6111    0.1075   10.3357 C   0  0  0  0  0  0  0  0  0  0  0  0
   11.8336    0.1177   11.0244 C   0  0  0  0  0  0  0  0  0  0  0  0
    9.4158   -0.6233    7.8509 S   0  0  0  0  0  6  0  0  0  0  0  0
    8.6915    0.6438    7.7066 O   0  0  0  0  0  0  0  0  0  0  0  0
    9.9975   -1.3084    6.6953 O   0  0  0  0  0  0  0  0  0  0  0  0
    8.3394   -1.8463    8.7737 C   0  0  0  0  0  0  0  0  0  0  0  0
    9.4667    0.5095   11.2358 C   0  0  1  0  0  0  0  0  0  0  0  0
   10.1202    0.5960   12.6307 C   0  0  0  0  0  0  0  0  0  0  0  0
   11.6426    0.5559   12.4531 C   0  0  0  0  0  0  0  0  0  0  0  0
    8.9486    1.7279   10.7317 O   0  0  0  0  0  0  0  0  0  0  0  0
   12.4043   -0.6285    8.6100 S   0  0  0  0  0  0  0  0  0  0  0  0
    9.7320   -0.4360   13.3814 F   0  0  0  0  0  0  0  0  0  0  0  0
    9.7807    1.7291   13.2472 F   0  0  0  0  0  0  0  0  0  0  0  0
   14.7514   -1.6088   11.2756 C   0  0  0  0  0  0  0  0  0  0  0  0
   16.1073   -1.8094   11.5386 C   0  0  0  0  0  0  0  0  0  0  0  0
   17.0471   -0.8766   11.1028 C   0  0  0  0  0  0  0  0  0  0  0  0
   16.6330    0.2650   10.4188 C   0  0  0  0  0  0  0  0  0  0  0  0
   15.2820    0.4557   10.1452 C   0  0  0  0  0  0  0  0  0  0  0  0
   16.5539   -3.0330   12.2825 C   0  0  0  0  0  0  0  0  0  0  0  0
   16.9284   -3.9667   12.8539 N   0  0  0  0  0  0  0  0  0  0  0  0
    8.9811   -2.4976    9.3646 H   0  0  0  0  0  0  0  0  0  0  0  0
    7.7955   -2.4396    8.0435 H   0  0  0  0  0  0  0  0  0  0  0  0
    7.6476   -1.3018    9.4112 H   0  0  0  0  0  0  0  0  0  0  0  0
    8.6695   -0.2313   11.2458 H   0  0  0  0  0  0  0  0  0  0  0  0
   12.0815    1.5431   12.6023 H   0  0  0  0  0  0  0  0  0  0  0  0
   12.1186   -0.1258   13.1586 H   0  0  0  0  0  0  0  0  0  0  0  0
    8.2302    2.0274   11.3003 H   0  0  0  0  0  0  0  0  0  0  0  0
   14.0256   -2.3396   11.6011 H   0  0  0  0  0  0  0  0  0  0  0  0
   18.0974   -1.0336   11.3044 H   0  0  0  0  0  0  0  0  0  0  0  0
   17.3602    0.9912   10.0854 H   0  0  0  0  0  0  0  0  0  0  0  0
   14.9655    1.3294    9.5939 H   0  0  0  0  0  0  0  0  0  0  0  0
  1  2  1  0
  1 17  2  0
  1 21  1  0
  2  5  2  0
  2 14  1  0
  3  4  2  0
  3  6  1  0
  3 14  1  0
  4  5  1  0
  4 10  1  0
  5 12  1  0
  6  7  2  0
  6  8  2  0
  6  9  1  0
  9 24  1  0
  9 25  1  0
  9 26  1  0
 10 11  1  0
 10 13  1  0
 10 27  1  1
 11 12  1  0
 11 15  1  0
 11 16  1  0
 12 28  1  0
 12 29  1  0
 13 30  1  0
 17 18  1  0
 17 31  1  0
 18 19  2  0
 18 22  1  0
 19 20  1  0
 19 32  1  0
 20 21  2  0
 20 33  1  0
 21 34  1  0
 22 23  3  0
M  END
>  <Protein/Binding/ITC_Mean_KD_uM_HIF2a_240-350_human;(Num)>  (8) 
0.81999999999999995

>  <atom.dprop.PartialCharge>  (8) 
-0.005948819 -0.08318415 -0.45597902 -0.022512998 -0.13114119 1.4484936 -0.6550629 -0.6550629 -0.3674413 0.1739219 0.40175807 -0.033580385 -0.5696565 0.3178682 -0.22919133 -0.22919133 -0.07202037 -0.022416156 -0.077576175 -0.14163971 -0.08934377 0.23633343 -0.35796738 0.115832195 0.115832195 0.115832195 0.09036384 0.08671698 0.08671698 0.41515213 0.15196992 0.14908452 0.14609882 0.14694129

>  <experimental dG reference units>  (8) 
uM

>  <experimental dG reference field>  (8) 
Protein/Binding/ITC_Mean_KD_uM_HIF2a_240-350_human;(Num)

>  <kJ/mol experimental dG>  (8) 
-34.9557719964088

>  <kcal/mol experimental dG>  (8) 
-8.35463001826214

$$$$
22d-bindingpose2
     RDKit          3D

 34 36  0  0  0  0  0  0  0  0999 V2000
   14.3349   -0.4795   10.5653 C   0  0  0  0  0  0  0  0  0  0  0  0
   12.9060   -0.2855   10.2311 C   0  0  0  0  0  0  0  0  0  0  0  0
   10.7535   -0.3301    9.0248 C   0  0  0  0  0  0  0  0  0  0  0  0
   10.6111    0.1075   10.3357 C   0  0  0  0  0  0  0  0  0  0  0  0
   11.8336    0.1177   11.0244 C   0  0  0  0  0  0  0  0  0  0  0  0
    9.4158   -0.6233    7.8509 S   0  0  0  0  0  6  0  0  0  0  0  0
    8.6915    0.6438    7.7066 O   0  0  0  0  0  0  0  0  0  0  0  0
    9.9975   -1.3084    6.6953 O   0  0  0  0  0  0  0  0  0  0  0  0
    8.3394   -1.8463    8.7737 C   0  0  0  0  0  0  0  0  0  0  0  0
    9.4667    0.5095   11.2358 C   0  0  1  0  0  0  0  0  0  0  0  0
   10.1202    0.5960   12.6307 C   0  0  0  0  0  0  0  0  0  0  0  0
   11.6426    0.5559   12.4531 C   0  0  0  0  0  0  0  0  0  0  0  0
    8.9486    1.7279   10.7317 O   0  0  0  0  0  0  0  0  0  0  0  0
   12.4043   -0.6285    8.6100 S   0  0  0  0  0  0  0  0  0  0  0  0
    9.7320   -0.4360   13.3814 F   0  0  0  0  0  0  0  0  0  0  0  0
    9.7807    1.7291   13.2472 F   0  0  0  0  0  0  0  0  0  0  0  0
   15.2883    0.4696   10.1867 C   0  0  0  0  0  0  0  0  0  0  0  0
   16.6247    0.3040   10.5535 C   0  0  0  0  0  0  0  0  0  0  0  0
   17.0120   -0.8153   11.2886 C   0  0  0  0  0  0  0  0  0  0  0  0
   16.0690   -1.7783   11.6438 C   0  0  0  0  0  0  0  0  0  0  0  0
   14.7347   -1.6039   11.2893 C   0  0  0  0  0  0  0  0  0  0  0  0
   17.6424    1.3349   10.1644 C   0  0  0  0  0  0  0  0  0  0  0  0
   18.4498    2.1128    9.8787 N   0  0  0  0  0  0  0  0  0  0  0  0
    8.9811   -2.4976    9.3646 H   0  0  0  0  0  0  0  0  0  0  0  0
    7.7955   -2.4396    8.0435 H   0  0  0  0  0  0  0  0  0  0  0  0
    7.6476   -1.3018    9.4112 H   0  0  0  0  0  0  0  0  0  0  0  0
    8.6695   -0.2313   11.2458 H   0  0  0  0  0  0  0  0  0  0  0  0
   12.0815    1.5431   12.6023 H   0  0  0  0  0  0  0  0  0  0  0  0
   12.1186   -0.1258   13.1586 H   0  0  0  0  0  0  0  0  0  0  0  0
    8.2302    2.0274   11.3003 H   0  0  0  0  0  0  0  0  0  0  0  0
   14.9870    1.3447    9.6297 H   0  0  0  0  0  0  0  0  0  0  0  0
   18.0466   -0.9419   11.5748 H   0  0  0  0  0  0  0  0  0  0  0  0
   16.3693   -2.6488   12.2089 H   0  0  0  0  0  0  0  0  0  0  0  0
   14.0012   -2.3396   11.5862 H   0  0  0  0  0  0  0  0  0  0  0  0
  1  2  1  0
  1 17  2  0
  1 21  1  0
  2  5  2  0
  2 14  1  0
  3  4  2  0
  3  6  1  0
  3 14  1  0
  4  5  1  0
  4 10  1  0
  5 12  1  0
  6  7  2  0
  6  8  2  0
  6  9  1  0
  9 24  1  0
  9 25  1  0
  9 26  1  0
 10 11  1  0
 10 13  1  0
 10 27  1  1
 11 12  1  0
 11 15  1  0
 11 16  1  0
 12 28  1  0
 12 29  1  0
 13 30  1  0
 17 18  1  0
 17 31  1  0
 18 19  2  0
 18 22  1  0
 19 20  1  0
 19 32  1  0
 20 21  2  0
 20 33  1  0
 21 34  1  0
 22 23  3  0
M  END
>  <Protein/Binding/ITC_Mean_KD_uM_HIF2a_240-350_human;(Num)>  (9) 
0.81999999999999995

>  <atom.dprop.PartialCharge>  (9) 
-0.005948819 -0.08318415 -0.45597902 -0.022512998 -0.13114119 1.4484936 -0.6550629 -0.6550629 -0.3674413 0.1739219 0.40175807 -0.033580385 -0.5696565 0.3178682 -0.22919133 -0.22919133 -0.07202037 -0.022416156 -0.077576175 -0.14163971 -0.08934377 0.23633343 -0.35796738 0.115832195 0.115832195 0.115832195 0.09036384 0.08671698 0.08671698 0.41515213 0.15196992 0.14908452 0.14609882 0.14694129

>  <experimental dG reference units>  (9) 
uM

>  <experimental dG reference field>  (9) 
Protein/Binding/ITC_Mean_KD_uM_HIF2a_240-350_human;(Num)

>  <kJ/mol experimental dG>  (9) 
-34.9557719964088

>  <kcal/mol experimental dG>  (9) 
-8.35463001826214

$$$$
22f-bindingpose1
     RDKit          3D

 34 36  0  0  0  0  0  0  0  0999 V2000
   14.3349   -0.4795   10.5653 C   0  0  0  0  0  0  0  0  0  0  0  0
   12.9060   -0.2855   10.2311 C   0  0  0  0  0  0  0  0  0  0  0  0
   10.7535   -0.3301    9.0248 C   0  0  0  0  0  0  0  0  0  0  0  0
   10.6111    0.1075   10.3357 C   0  0  0  0  0  0  0  0  0  0  0  0
   11.8336    0.1177   11.0244 C   0  0  0  0  0  0  0  0  0  0  0  0
    9.4158   -0.6233    7.8509 S   0  0  0  0  0  6  0  0  0  0  0  0
    9.9975   -1.3084    6.6953 O   0  0  0  0  0  0  0  0  0  0  0  0
    8.6915    0.6438    7.7066 O   0  0  0  0  0  0  0  0  0  0  0  0
    8.3394   -1.8463    8.7737 C   0  0  0  0  0  0  0  0  0  0  0  0
    9.4667    0.5095   11.2358 C   0  0  1  0  0  0  0  0  0  0  0  0
   10.1202    0.5960   12.6307 C   0  0  0  0  0  0  0  0  0  0  0  0
   11.6426    0.5559   12.4531 C   0  0  0  0  0  0  0  0  0  0  0  0
    8.9486    1.7279   10.7317 O   0  0  0  0  0  0  0  0  0  0  0  0
   12.4043   -0.6285    8.6100 S   0  0  0  0  0  0  0  0  0  0  0  0
    9.7807    1.7291   13.2472 F   0  0  0  0  0  0  0  0  0  0  0  0
    9.7320   -0.4360   13.3814 F   0  0  0  0  0  0  0  0  0  0  0  0
   14.7514   -1.6088   11.2756 C   0  0  0  0  0  0  0  0  0  0  0  0
   16.1073   -1.8094   11.5386 C   0  0  0  0  0  0  0  0  0  0  0  0
   17.0471   -0.8766   11.1028 C   0  0  0  0  0  0  0  0  0  0  0  0
   16.6330    0.2650   10.4188 C   0  0  0  0  0  0  0  0  0  0  0  0
   15.2820    0.4557   10.1452 C   0  0  0  0  0  0  0  0  0  0  0  0
   16.5551   -3.0323   12.2829 C   0  0  0  0  0  0  0  0  0  0  0  0
   17.7940    1.4286    9.8971 Cl  0  0  0  0  0  0  0  0  0  0  0  0
   16.9306   -3.9655   12.8545 N   0  0  0  0  0  0  0  0  0  0  0  0
    8.9811   -2.4976    9.3646 H   0  0  0  0  0  0  0  0  0  0  0  0
    7.7955   -2.4396    8.0435 H   0  0  0  0  0  0  0  0  0  0  0  0
    7.6476   -1.3018    9.4112 H   0  0  0  0  0  0  0  0  0  0  0  0
    8.6694   -0.2311   11.2457 H   0  0  0  0  0  0  0  0  0  0  0  0
   12.0808    1.5434   12.6022 H   0  0  0  0  0  0  0  0  0  0  0  0
   12.1183   -0.1255   13.1591 H   0  0  0  0  0  0  0  0  0  0  0  0
    8.2302    2.0274   11.3003 H   0  0  0  0  0  0  0  0  0  0  0  0
   14.0253   -2.3399   11.6013 H   0  0  0  0  0  0  0  0  0  0  0  0
   18.0975   -1.0301   11.3043 H   0  0  0  0  0  0  0  0  0  0  0  0
   14.9681    1.3309    9.5953 H   0  0  0  0  0  0  0  0  0  0  0  0
  1  2  1  0
  1 17  2  0
  1 21  1  0
  2  5  2  0
  2 14  1  0
  3  4  2  0
  3  6  1  0
  3 14  1  0
  4  5  1  0
  4 10  1  0
  5 12  1  0
  6  7  2  0
  6  8  2  0
  6  9  1  0
  9 25  1  0
  9 26  1  0
  9 27  1  0
 10 11  1  0
 10 13  1  0
 10 28  1  1
 11 12  1  0
 11 15  1  0
 11 16  1  0
 12 29  1  0
 12 30  1  0
 13 31  1  0
 17 18  1  0
 17 32  1  0
 18 19  2  0
 18 22  1  0
 19 20  1  0
 19 33  1  0
 20 21  2  0
 20 23  1  0
 21 34  1  0
 22 24  3  0
M  END
>  <Protein/Binding/ITC_Mean_KD_uM_HIF2a_240-350_human;(Num)>  (10) 
0.20999999999999999

>  <atom.dprop.PartialCharge>  (10) 
0.010690875 -0.08909354 -0.45457032 -0.021568459 -0.126396 1.4488562 -0.6547 -0.6547 -0.36707845 0.17428468 0.40212083 -0.03268942 -0.5692936 0.32138807 -0.22882845 -0.22882845 -0.07488184 -0.0068001896 -0.08357839 0.014481667 -0.10076962 0.23520803 -0.07620104 -0.3503914 0.11619503 0.11619503 0.11619503 0.09072666 0.08707981 0.08707981 0.41551495 0.15578645 0.16520482 0.16336103

>  <experimental dG reference units>  (10) 
uM

>  <experimental dG reference field>  (10) 
Protein/Binding/ITC_Mean_KD_uM_HIF2a_240-350_human;(Num)

>  <kJ/mol experimental dG>  (10) 
-38.35357219015115

>  <kcal/mol experimental dG>  (10) 
-9.166723754816239

$$$$
22f-bindingpose2
     RDKit          3D

 34 36  0  0  0  0  0  0  0  0999 V2000
   14.3349   -0.4795   10.5653 C   0  0  0  0  0  0  0  0  0  0  0  0
   12.9060   -0.2855   10.2311 C   0  0  0  0  0  0  0  0  0  0  0  0
   10.7535   -0.3301    9.0248 C   0  0  0  0  0  0  0  0  0  0  0  0
   10.6111    0.1075   10.3357 C   0  0  0  0  0  0  0  0  0  0  0  0
   11.8336    0.1177   11.0244 C   0  0  0  0  0  0  0  0  0  0  0  0
    9.4158   -0.6233    7.8509 S   0  0  0  0  0  6  0  0  0  0  0  0
    9.9975   -1.3084    6.6953 O   0  0  0  0  0  0  0  0  0  0  0  0
    8.6915    0.6438    7.7066 O   0  0  0  0  0  0  0  0  0  0  0  0
    8.3394   -1.8463    8.7737 C   0  0  0  0  0  0  0  0  0  0  0  0
    9.4667    0.5095   11.2358 C   0  0  1  0  0  0  0  0  0  0  0  0
   10.1202    0.5960   12.6307 C   0  0  0  0  0  0  0  0  0  0  0  0
   11.6426    0.5559   12.4531 C   0  0  0  0  0  0  0  0  0  0  0  0
    8.9486    1.7279   10.7317 O   0  0  0  0  0  0  0  0  0  0  0  0
   12.4043   -0.6285    8.6100 S   0  0  0  0  0  0  0  0  0  0  0  0
    9.7807    1.7291   13.2472 F   0  0  0  0  0  0  0  0  0  0  0  0
    9.7320   -0.4360   13.3814 F   0  0  0  0  0  0  0  0  0  0  0  0
   15.2933    0.4508   10.1542 C   0  0  0  0  0  0  0  0  0  0  0  0
   16.6300    0.2869   10.5206 C   0  0  0  0  0  0  0  0  0  0  0  0
   17.0126   -0.8124   11.2877 C   0  0  0  0  0  0  0  0  0  0  0  0
   16.0644   -1.7573   11.6757 C   0  0  0  0  0  0  0  0  0  0  0  0
   14.7298   -1.5843   11.3214 C   0  0  0  0  0  0  0  0  0  0  0  0
   17.6544    1.2972   10.0964 C   0  0  0  0  0  0  0  0  0  0  0  0
   16.5412   -3.1276   12.6080 Cl  0  0  0  0  0  0  0  0  0  0  0  0
   18.4668    2.0595    9.7842 N   0  0  0  0  0  0  0  0  0  0  0  0
    8.9811   -2.4976    9.3646 H   0  0  0  0  0  0  0  0  0  0  0  0
    7.7955   -2.4396    8.0435 H   0  0  0  0  0  0  0  0  0  0  0  0
    7.6476   -1.3018    9.4112 H   0  0  0  0  0  0  0  0  0  0  0  0
    8.6694   -0.2311   11.2457 H   0  0  0  0  0  0  0  0  0  0  0  0
   12.0808    1.5434   12.6022 H   0  0  0  0  0  0  0  0  0  0  0  0
   12.1183   -0.1255   13.1591 H   0  0  0  0  0  0  0  0  0  0  0  0
    8.2302    2.0274   11.3003 H   0  0  0  0  0  0  0  0  0  0  0  0
   14.9957    1.3111    9.5719 H   0  0  0  0  0  0  0  0  0  0  0  0
   18.0467   -0.9410   11.5734 H   0  0  0  0  0  0  0  0  0  0  0  0
   13.9950   -2.3076   11.6433 H   0  0  0  0  0  0  0  0  0  0  0  0
  1  2  1  0
  1 17  2  0
  1 21  1  0
  2  5  2  0
  2 14  1  0
  3  4  2  0
  3  6  1  0
  3 14  1  0
  4  5  1  0
  4 10  1  0
  5 12  1  0
  6  7  2  0
  6  8  2  0
  6  9  1  0
  9 25  1  0
  9 26  1  0
  9 27  1  0
 10 11  1  0
 10 13  1  0
 10 28  1  1
 11 12  1  0
 11 15  1  0
 11 16  1  0
 12 29  1  0
 12 30  1  0
 13 31  1  0
 17 18  1  0
 17 32  1  0
 18 19  2  0
 18 22  1  0
 19 20  1  0
 19 33  1  0
 20 21  2  0
 20 23  1  0
 21 34  1  0
 22 24  3  0
M  END
>  <Protein/Binding/ITC_Mean_KD_uM_HIF2a_240-350_human;(Num)>  (11) 
0.20999999999999999

>  <atom.dprop.PartialCharge>  (11) 
0.010690875 -0.08909354 -0.45457032 -0.021568459 -0.126396 1.4488562 -0.6547 -0.6547 -0.36707845 0.17428468 0.40212083 -0.03268942 -0.5692936 0.32138807 -0.22882845 -0.22882845 -0.07488184 -0.0068001896 -0.08357839 0.014481667 -0.10076962 0.23520803 -0.07620104 -0.3503914 0.11619503 0.11619503 0.11619503 0.09072666 0.08707981 0.08707981 0.41551495 0.15578645 0.16520482 0.16336103

>  <experimental dG reference units>  (11) 
uM

>  <experimental dG reference field>  (11) 
Protein/Binding/ITC_Mean_KD_uM_HIF2a_240-350_human;(Num)

>  <kJ/mol experimental dG>  (11) 
-38.35357219015115

>  <kcal/mol experimental dG>  (11) 
-9.166723754816239

$$$$
35e
     RDKit          3D

 36 37  0  0  0  0  0  0  0  0999 V2000
   14.2394   -0.3874   10.5715 O   0  0  0  0  0  0  0  0  0  0  0  0
   12.9060   -0.2855   10.2311 C   0  0  0  0  0  0  0  0  0  0  0  0
   10.7535   -0.3301    9.0248 C   0  0  0  0  0  0  0  0  0  0  0  0
   10.6111    0.1075   10.3357 C   0  0  0  0  0  0  0  0  0  0  0  0
   11.8336    0.1177   11.0244 C   0  0  0  0  0  0  0  0  0  0  0  0
    9.4158   -0.6233    7.8509 S   0  0  0  0  0  6  0  0  0  0  0  0
    8.6915    0.6438    7.7066 O   0  0  0  0  0  0  0  0  0  0  0  0
    9.9975   -1.3084    6.6953 O   0  0  0  0  0  0  0  0  0  0  0  0
    8.3394   -1.8463    8.7737 C   0  0  0  0  0  0  0  0  0  0  0  0
    9.4667    0.5095   11.2358 C   0  0  1  0  0  0  0  0  0  0  0  0
   10.1202    0.5960   12.6307 C   0  0  0  0  0  0  0  0  0  0  0  0
   11.6426    0.5559   12.4531 C   0  0  0  0  0  0  0  0  0  0  0  0
    8.9486    1.7279   10.7317 O   0  0  0  0  0  0  0  0  0  0  0  0
   12.4043   -0.6285    8.6100 S   0  0  0  0  0  0  0  0  0  0  0  0
    9.7807    1.7291   13.2472 F   0  0  0  0  0  0  0  0  0  0  0  0
    9.7320   -0.4360   13.3814 F   0  0  0  0  0  0  0  0  0  0  0  0
   15.0689   -0.8199    9.5570 C   0  0  0  0  0  0  0  0  0  0  0  0
   16.4809   -0.8852   10.0591 C   0  0  0  0  0  0  0  0  0  0  0  0
   16.5582   -1.8431   11.2108 C   0  0  0  0  0  0  0  0  0  0  0  0
   16.9139    0.4776   10.5123 C   0  0  0  0  0  0  0  0  0  0  0  0
    7.7955   -2.4396    8.0435 H   0  0  0  0  0  0  0  0  0  0  0  0
    7.6476   -1.3018    9.4112 H   0  0  0  0  0  0  0  0  0  0  0  0
    8.9811   -2.4976    9.3646 H   0  0  0  0  0  0  0  0  0  0  0  0
    8.6711   -0.2329   11.2478 H   0  0  0  0  0  0  0  0  0  0  0  0
   12.0741    1.5470   12.5991 H   0  0  0  0  0  0  0  0  0  0  0  0
   12.1185   -0.1215   13.1625 H   0  0  0  0  0  0  0  0  0  0  0  0
    8.2302    2.0274   11.3003 H   0  0  0  0  0  0  0  0  0  0  0  0
   14.7543   -1.8102    9.2277 H   0  0  0  0  0  0  0  0  0  0  0  0
   15.0127   -0.1239    8.7201 H   0  0  0  0  0  0  0  0  0  0  0  0
   17.1361   -1.2269    9.2578 H   0  0  0  0  0  0  0  0  0  0  0  0
   15.9030   -1.5015   12.0122 H   0  0  0  0  0  0  0  0  0  0  0  0
   17.5842   -1.8905   11.5757 H   0  0  0  0  0  0  0  0  0  0  0  0
   16.2435   -2.8334   10.8815 H   0  0  0  0  0  0  0  0  0  0  0  0
   16.2587    0.8192   11.3136 H   0  0  0  0  0  0  0  0  0  0  0  0
   16.8577    1.1736    9.6753 H   0  0  0  0  0  0  0  0  0  0  0  0
   17.9399    0.4301   10.8771 H   0  0  0  0  0  0  0  0  0  0  0  0
  1  2  1  0
  1 17  1  0
  2  5  2  0
  2 14  1  0
  3  4  2  0
  3  6  1  0
  3 14  1  0
  4  5  1  0
  4 10  1  0
  5 12  1  0
  6  7  2  0
  6  8  2  0
  6  9  1  0
  9 21  1  0
  9 22  1  0
  9 23  1  0
 10 11  1  0
 10 13  1  0
 10 24  1  1
 11 12  1  0
 11 15  1  0
 11 16  1  0
 12 25  1  0
 12 26  1  0
 13 27  1  0
 17 18  1  0
 17 28  1  0
 17 29  1  0
 18 19  1  0
 18 20  1  0
 18 30  1  0
 19 31  1  0
 19 32  1  0
 19 33  1  0
 20 34  1  0
 20 35  1  0
 20 36  1  0
M  END
>  <Protein/Binding/ITC_Mean_KD_uM_HIF2a_240-350_human;(Num)>  (12) 
0.072499999999999995

>  <atom.dprop.PartialCharge>  (12) 
-0.27246365 0.16878872 -0.471291 0.009341501 -0.250442 1.4527259 -0.6547406 -0.6547406 -0.37107995 0.1678406 0.3992371 0.0016905069 -0.5691298 0.21822563 -0.23002245 -0.23002245 0.13872665 -0.06788272 -0.08652142 -0.08652142 0.11547755 0.11547755 0.11547755 0.09279494 0.07841426 0.07841426 0.41408566 0.04355822 0.04355822 0.061445884 0.038262814 0.038262814 0.038262814 0.038262814 0.038262814 0.038262814

>  <experimental dG reference units>  (12) 
uM

>  <experimental dG reference field>  (12) 
Protein/Binding/ITC_Mean_KD_uM_HIF2a_240-350_human;(Num)

>  <kJ/mol experimental dG>  (12) 
-41.00636929606193

>  <kcal/mol experimental dG>  (12) 
-9.800757479938321

$$$$
35f
     RDKit          3D

 34 36  0  0  0  0  0  0  0  0999 V2000
   14.2394   -0.3874   10.5715 O   0  0  0  0  0  0  0  0  0  0  0  0
   12.9060   -0.2855   10.2311 C   0  0  0  0  0  0  0  0  0  0  0  0
   10.7535   -0.3301    9.0248 C   0  0  0  0  0  0  0  0  0  0  0  0
   10.6111    0.1075   10.3357 C   0  0  0  0  0  0  0  0  0  0  0  0
   11.8336    0.1177   11.0244 C   0  0  0  0  0  0  0  0  0  0  0  0
    9.4158   -0.6233    7.8509 S   0  0  0  0  0  6  0  0  0  0  0  0
    8.6915    0.6438    7.7066 O   0  0  0  0  0  0  0  0  0  0  0  0
    9.9975   -1.3084    6.6953 O   0  0  0  0  0  0  0  0  0  0  0  0
    8.3394   -1.8463    8.7737 C   0  0  0  0  0  0  0  0  0  0  0  0
    9.4667    0.5095   11.2358 C   0  0  1  0  0  0  0  0  0  0  0  0
   10.1202    0.5960   12.6307 C   0  0  0  0  0  0  0  0  0  0  0  0
   11.6426    0.5559   12.4531 C   0  0  0  0  0  0  0  0  0  0  0  0
    8.9486    1.7279   10.7317 O   0  0  0  0  0  0  0  0  0  0  0  0
   12.4043   -0.6285    8.6100 S   0  0  0  0  0  0  0  0  0  0  0  0
    9.7807    1.7291   13.2472 F   0  0  0  0  0  0  0  0  0  0  0  0
    9.7320   -0.4360   13.3814 F   0  0  0  0  0  0  0  0  0  0  0  0
   15.0689   -0.8199    9.5570 C   0  0  0  0  0  0  0  0  0  0  0  0
   16.4809   -0.8852   10.0591 C   0  0  0  0  0  0  0  0  0  0  0  0
   16.7271   -1.2886   11.4953 C   0  0  0  0  0  0  0  0  0  0  0  0
   16.9466    0.1439   11.0641 C   0  0  0  0  0  0  0  0  0  0  0  0
    7.7955   -2.4396    8.0435 H   0  0  0  0  0  0  0  0  0  0  0  0
    7.6476   -1.3018    9.4112 H   0  0  0  0  0  0  0  0  0  0  0  0
    8.9811   -2.4976    9.3646 H   0  0  0  0  0  0  0  0  0  0  0  0
    8.6711   -0.2329   11.2478 H   0  0  0  0  0  0  0  0  0  0  0  0
   12.0741    1.5470   12.5991 H   0  0  0  0  0  0  0  0  0  0  0  0
   12.1185   -0.1215   13.1625 H   0  0  0  0  0  0  0  0  0  0  0  0
    8.2302    2.0274   11.3003 H   0  0  0  0  0  0  0  0  0  0  0  0
   14.7543   -1.8102    9.2277 H   0  0  0  0  0  0  0  0  0  0  0  0
   15.0127   -0.1239    8.7201 H   0  0  0  0  0  0  0  0  0  0  0  0
   17.1778   -1.2237    9.2894 H   0  0  0  0  0  0  0  0  0  0  0  0
   15.8708   -1.5224   12.1316 H   0  0  0  0  0  0  0  0  0  0  0  0
   17.5957   -1.9085   11.7275 H   0  0  0  0  0  0  0  0  0  0  0  0
   17.9684    0.5232   10.9955 H   0  0  0  0  0  0  0  0  0  0  0  0
   16.2435    0.9092   11.3996 H   0  0  0  0  0  0  0  0  0  0  0  0
  1  2  1  0
  1 17  1  0
  2  5  2  0
  2 14  1  0
  3  4  2  0
  3  6  1  0
  3 14  1  0
  4  5  1  0
  4 10  1  0
  5 12  1  0
  6  7  2  0
  6  8  2  0
  6  9  1  0
  9 21  1  0
  9 22  1  0
  9 23  1  0
 10 11  1  0
 10 13  1  0
 10 24  1  1
 11 12  1  0
 11 15  1  0
 11 16  1  0
 12 25  1  0
 12 26  1  0
 13 27  1  0
 17 18  1  0
 17 28  1  0
 17 29  1  0
 18 19  1  0
 18 20  1  0
 18 30  1  0
 19 20  1  0
 19 31  1  0
 19 32  1  0
 20 33  1  0
 20 34  1  0
M  END
>  <Protein/Binding/ITC_Mean_KD_uM_HIF2a_240-350_human;(Num)>  (13) 
0.29999999999999999

>  <atom.dprop.PartialCharge>  (13) 
-0.2785032 0.156429 -0.47460267 0.005498808 -0.23876305 1.4524409 -0.6545126 -0.6545126 -0.370852 0.16814004 0.3997826 -0.0010167062 -0.56890184 0.2345685 -0.22979447 -0.22979447 0.15794575 -0.130738 -0.120982036 -0.120982036 0.11570548 0.11570548 0.11570548 0.09302287 0.07918584 0.07918584 0.41431358 0.04557042 0.04557042 0.10395993 0.072806105 0.072806105 0.072806105 0.072806105

>  <experimental dG reference units>  (13) 
uM

>  <experimental dG reference field>  (13) 
Protein/Binding/ITC_Mean_KD_uM_HIF2a_240-350_human;(Num)

>  <kJ/mol experimental dG>  (13) 
-37.46389884403122

>  <kcal/mol experimental dG>  (13) 
-8.954086721804785

$$$$
35g
     RDKit          3D

 37 39  0  0  0  0  0  0  0  0999 V2000
   14.2394   -0.3874   10.5715 O   0  0  0  0  0  0  0  0  0  0  0  0
   12.9060   -0.2855   10.2311 C   0  0  0  0  0  0  0  0  0  0  0  0
   10.7535   -0.3301    9.0248 C   0  0  0  0  0  0  0  0  0  0  0  0
   10.6111    0.1075   10.3357 C   0  0  0  0  0  0  0  0  0  0  0  0
   11.8336    0.1177   11.0244 C   0  0  0  0  0  0  0  0  0  0  0  0
    9.4158   -0.6233    7.8509 S   0  0  0  0  0  6  0  0  0  0  0  0
    8.6915    0.6438    7.7066 O   0  0  0  0  0  0  0  0  0  0  0  0
    9.9975   -1.3084    6.6953 O   0  0  0  0  0  0  0  0  0  0  0  0
    8.3394   -1.8463    8.7737 C   0  0  0  0  0  0  0  0  0  0  0  0
    9.4667    0.5095   11.2358 C   0  0  1  0  0  0  0  0  0  0  0  0
   10.1202    0.5960   12.6307 C   0  0  0  0  0  0  0  0  0  0  0  0
   11.6426    0.5559   12.4531 C   0  0  0  0  0  0  0  0  0  0  0  0
    8.9486    1.7279   10.7317 O   0  0  0  0  0  0  0  0  0  0  0  0
   12.4043   -0.6285    8.6100 S   0  0  0  0  0  0  0  0  0  0  0  0
    9.7320   -0.4360   13.3814 F   0  0  0  0  0  0  0  0  0  0  0  0
    9.7807    1.7291   13.2472 F   0  0  0  0  0  0  0  0  0  0  0  0
   15.0689   -0.8199    9.5570 C   0  0  0  0  0  0  0  0  0  0  0  0
   16.4809   -0.8852   10.0591 C   0  0  0  0  0  0  0  0  0  0  0  0
   16.6818   -1.6390   11.3807 C   0  0  0  0  0  0  0  0  0  0  0  0
   17.7017   -0.5588   11.7658 C   0  0  0  0  0  0  0  0  0  0  0  0
   16.9903    0.3729   10.7753 C   0  0  0  0  0  0  0  0  0  0  0  0
    7.7955   -2.4396    8.0435 H   0  0  0  0  0  0  0  0  0  0  0  0
    7.6476   -1.3018    9.4112 H   0  0  0  0  0  0  0  0  0  0  0  0
    8.9811   -2.4976    9.3646 H   0  0  0  0  0  0  0  0  0  0  0  0
    8.6711   -0.2329   11.2478 H   0  0  0  0  0  0  0  0  0  0  0  0
   12.0741    1.5470   12.5991 H   0  0  0  0  0  0  0  0  0  0  0  0
   12.1185   -0.1215   13.1625 H   0  0  0  0  0  0  0  0  0  0  0  0
    8.2302    2.0274   11.3003 H   0  0  0  0  0  0  0  0  0  0  0  0
   14.7543   -1.8102    9.2277 H   0  0  0  0  0  0  0  0  0  0  0  0
   15.0127   -0.1239    8.7201 H   0  0  0  0  0  0  0  0  0  0  0  0
   17.1281   -1.2285    9.2481 H   0  0  0  0  0  0  0  0  0  0  0  0
   15.7952   -1.6618   12.0194 H   0  0  0  0  0  0  0  0  0  0  0  0
   17.0777   -2.6524   11.2914 H   0  0  0  0  0  0  0  0  0  0  0  0
   17.6826   -0.2416   12.8101 H   0  0  0  0  0  0  0  0  0  0  0  0
   18.7312   -0.7998   11.4892 H   0  0  0  0  0  0  0  0  0  0  0  0
   16.2002    0.9801   11.2243 H   0  0  0  0  0  0  0  0  0  0  0  0
   17.6410    1.0216   10.1858 H   0  0  0  0  0  0  0  0  0  0  0  0
  1  2  1  0
  1 17  1  0
  2  5  2  0
  2 14  1  0
  3  4  2  0
  3  6  1  0
  3 14  1  0
  4  5  1  0
  4 10  1  0
  5 12  1  0
  6  7  2  0
  6  8  2  0
  6  9  1  0
  9 22  1  0
  9 23  1  0
  9 24  1  0
 10 11  1  0
 10 13  1  0
 10 25  1  1
 11 12  1  0
 11 15  1  0
 11 16  1  0
 12 26  1  0
 12 27  1  0
 13 28  1  0
 17 18  1  0
 17 29  1  0
 17 30  1  0
 18 19  1  0
 18 21  1  0
 18 31  1  0
 19 20  1  0
 19 32  1  0
 19 33  1  0
 20 21  1  0
 20 34  1  0
 20 35  1  0
 21 36  1  0
 21 37  1  0
M  END
>  <Protein/Binding/ITC_Mean_KD_uM_HIF2a_240-350_human;(Num)>  (14) 
0.088999999999999996

>  <atom.dprop.PartialCharge>  (14) 
-0.27720708 0.16531786 -0.4760477 0.009743247 -0.2491979 1.4526172 -0.6547784 -0.6547784 -0.37111777 0.16785544 0.39953232 0.0015446171 -0.5691676 0.21742618 -0.23006028 -0.23006028 0.14034948 -0.08289951 -0.08144258 -0.093738556 -0.08144258 0.11543971 0.11543971 0.11543971 0.09275712 0.07814643 0.07814643 0.41404784 0.047218025 0.047218025 0.07732069 0.054041833 0.054041833 0.05010564 0.05010564 0.054041833 0.054041833

>  <experimental dG reference units>  (14) 
uM

>  <experimental dG reference field>  (14) 
Protein/Binding/ITC_Mean_KD_uM_HIF2a_240-350_human;(Num)

>  <kJ/mol experimental dG>  (14) 
-40.49490261809527

>  <kcal/mol experimental dG>  (14) 
-9.67851401006101

$$$$
35i
     RDKit          3D

 39 40  0  0  0  0  0  0  0  0999 V2000
   14.2070   -0.3863   10.6708 O   0  0  0  0  0  0  0  0  0  0  0  0
   12.9060   -0.2855   10.2311 C   0  0  0  0  0  0  0  0  0  0  0  0
   10.7535   -0.3301    9.0248 C   0  0  0  0  0  0  0  0  0  0  0  0
   10.6111    0.1075   10.3357 C   0  0  0  0  0  0  0  0  0  0  0  0
   11.8336    0.1177   11.0244 C   0  0  0  0  0  0  0  0  0  0  0  0
    9.4158   -0.6233    7.8509 S   0  0  0  0  0  6  0  0  0  0  0  0
    8.6915    0.6438    7.7066 O   0  0  0  0  0  0  0  0  0  0  0  0
    9.9975   -1.3084    6.6953 O   0  0  0  0  0  0  0  0  0  0  0  0
    8.3394   -1.8463    8.7737 C   0  0  0  0  0  0  0  0  0  0  0  0
    9.4667    0.5095   11.2358 C   0  0  1  0  0  0  0  0  0  0  0  0
   10.1202    0.5960   12.6307 C   0  0  0  0  0  0  0  0  0  0  0  0
   11.6426    0.5559   12.4531 C   0  0  0  0  0  0  0  0  0  0  0  0
    8.9486    1.7279   10.7317 O   0  0  0  0  0  0  0  0  0  0  0  0
   12.4043   -0.6285    8.6100 S   0  0  0  0  0  0  0  0  0  0  0  0
    9.7807    1.7291   13.2472 F   0  0  0  0  0  0  0  0  0  0  0  0
    9.7320   -0.4360   13.3814 F   0  0  0  0  0  0  0  0  0  0  0  0
   15.2113   -0.7694    9.7307 C   0  0  0  0  0  0  0  0  0  0  0  0
   16.6098   -0.7904   10.3995 C   0  0  0  0  0  0  0  0  0  0  0  0
   16.9627    0.6149   10.9391 C   0  0  0  0  0  0  0  0  0  0  0  0
   17.6649   -1.2044    9.3490 C   0  0  0  0  0  0  0  0  0  0  0  0
   16.6293   -1.8096   11.5617 C   0  0  0  0  0  0  0  0  0  0  0  0
    7.7955   -2.4396    8.0435 H   0  0  0  0  0  0  0  0  0  0  0  0
    7.6476   -1.3018    9.4112 H   0  0  0  0  0  0  0  0  0  0  0  0
    8.9811   -2.4976    9.3646 H   0  0  0  0  0  0  0  0  0  0  0  0
    8.6545   -0.2191   11.2360 H   0  0  0  0  0  0  0  0  0  0  0  0
   12.0527    1.5509   12.6306 H   0  0  0  0  0  0  0  0  0  0  0  0
   12.1044   -0.1229   13.1717 H   0  0  0  0  0  0  0  0  0  0  0  0
    8.2302    2.0274   11.3003 H   0  0  0  0  0  0  0  0  0  0  0  0
   14.9794   -1.7579    9.3278 H   0  0  0  0  0  0  0  0  0  0  0  0
   15.2167   -0.0720    8.8901 H   0  0  0  0  0  0  0  0  0  0  0  0
   17.9604    0.6354   11.3803 H   0  0  0  0  0  0  0  0  0  0  0  0
   16.2627    0.9383   11.7107 H   0  0  0  0  0  0  0  0  0  0  0  0
   16.9420    1.3651   10.1474 H   0  0  0  0  0  0  0  0  0  0  0  0
   17.6897   -0.5086    8.5090 H   0  0  0  0  0  0  0  0  0  0  0  0
   17.4594   -2.1957    8.9426 H   0  0  0  0  0  0  0  0  0  0  0  0
   18.6683   -1.2311    9.7768 H   0  0  0  0  0  0  0  0  0  0  0  0
   17.6138   -1.8658   12.0282 H   0  0  0  0  0  0  0  0  0  0  0  0
   16.3741   -2.8133   11.2189 H   0  0  0  0  0  0  0  0  0  0  0  0
   15.9170   -1.5431   12.3438 H   0  0  0  0  0  0  0  0  0  0  0  0
  1  2  1  0
  1 17  1  0
  2  5  2  0
  2 14  1  0
  3  4  2  0
  3  6  1  0
  3 14  1  0
  4  5  1  0
  4 10  1  0
  5 12  1  0
  6  7  2  0
  6  8  2  0
  6  9  1  0
  9 22  1  0
  9 23  1  0
  9 24  1  0
 10 11  1  0
 10 13  1  0
 10 25  1  1
 11 12  1  0
 11 15  1  0
 11 16  1  0
 12 26  1  0
 12 27  1  0
 13 28  1  0
 17 18  1  0
 17 29  1  0
 17 30  1  0
 18 19  1  0
 18 20  1  0
 18 21  1  0
 19 31  1  0
 19 32  1  0
 19 33  1  0
 20 34  1  0
 20 35  1  0
 20 36  1  0
 21 37  1  0
 21 38  1  0
 21 39  1  0
M  END
>  <Protein/Binding/ITC_Mean_KD_uM_HIF2a_240-350_human;(Num)>  (15) 
0.074999999999999997

>  <atom.dprop.PartialCharge>  (15) 
-0.27392912 0.1631016 -0.47041827 0.010373704 -0.24826378 1.4532254 -0.6542406 -0.6542406 -0.37058008 0.1683404 0.39973688 0.0026284344 -0.56862986 0.22069657 -0.2295225 -0.2295225 0.13334599 -0.048349448 -0.07966287 -0.07966287 -0.07966287 0.11597742 0.11597742 0.11597742 0.0932948 0.07891413 0.07891413 0.4145855 0.04088497 0.04088497 0.03775842 0.03775842 0.03775842 0.03775842 0.03775842 0.03775842 0.03775842 0.03775842 0.03775842

>  <experimental dG reference units>  (15) 
uM

>  <experimental dG reference field>  (15) 
Protein/Binding/ITC_Mean_KD_uM_HIF2a_240-350_human;(Num)

>  <kJ/mol experimental dG>  (15) 
-40.92180684660896

>  <kcal/mol experimental dG>  (15) 
-9.780546569457208

$$$$
35j-R
     RDKit          3D

 39 40  0  0  0  0  0  0  0  0999 V2000
   14.2394   -0.3874   10.5715 O   0  0  0  0  0  0  0  0  0  0  0  0
   12.9060   -0.2855   10.2311 C   0  0  0  0  0  0  0  0  0  0  0  0
   10.7535   -0.3301    9.0248 C   0  0  0  0  0  0  0  0  0  0  0  0
   10.6111    0.1075   10.3357 C   0  0  0  0  0  0  0  0  0  0  0  0
   11.8336    0.1177   11.0244 C   0  0  0  0  0  0  0  0  0  0  0  0
    9.4158   -0.6233    7.8509 S   0  0  0  0  0  6  0  0  0  0  0  0
    8.6915    0.6438    7.7066 O   0  0  0  0  0  0  0  0  0  0  0  0
    9.9975   -1.3084    6.6953 O   0  0  0  0  0  0  0  0  0  0  0  0
    8.3394   -1.8463    8.7737 C   0  0  0  0  0  0  0  0  0  0  0  0
    9.4667    0.5095   11.2358 C   0  0  1  0  0  0  0  0  0  0  0  0
   10.1202    0.5960   12.6307 C   0  0  0  0  0  0  0  0  0  0  0  0
   11.6426    0.5559   12.4531 C   0  0  0  0  0  0  0  0  0  0  0  0
    8.9486    1.7279   10.7317 O   0  0  0  0  0  0  0  0  0  0  0  0
   12.4043   -0.6285    8.6100 S   0  0  0  0  0  0  0  0  0  0  0  0
    9.7807    1.7291   13.2472 F   0  0  0  0  0  0  0  0  0  0  0  0
    9.7320   -0.4360   13.3814 F   0  0  0  0  0  0  0  0  0  0  0  0
   15.0689   -0.8199    9.5570 C   0  0  0  0  0  0  0  0  0  0  0  0
   16.4809   -0.8852   10.0591 C   0  0  2  0  0  0  0  0  0  0  0  0
   16.5582   -1.8431   11.2108 C   0  0  0  0  0  0  0  0  0  0  0  0
   16.9139    0.4776   10.5123 C   0  0  0  0  0  0  0  0  0  0  0  0
   16.8366    1.4354    9.3605 C   0  0  0  0  0  0  0  0  0  0  0  0
    7.7955   -2.4396    8.0435 H   0  0  0  0  0  0  0  0  0  0  0  0
    7.6476   -1.3018    9.4112 H   0  0  0  0  0  0  0  0  0  0  0  0
    8.9811   -2.4976    9.3646 H   0  0  0  0  0  0  0  0  0  0  0  0
    8.6711   -0.2329   11.2478 H   0  0  0  0  0  0  0  0  0  0  0  0
   12.0741    1.5470   12.5991 H   0  0  0  0  0  0  0  0  0  0  0  0
   12.1185   -0.1215   13.1625 H   0  0  0  0  0  0  0  0  0  0  0  0
    8.2302    2.0274   11.3003 H   0  0  0  0  0  0  0  0  0  0  0  0
   14.7543   -1.8102    9.2277 H   0  0  0  0  0  0  0  0  0  0  0  0
   15.0127   -0.1239    8.7201 H   0  0  0  0  0  0  0  0  0  0  0  0
   17.1361   -1.2269    9.2578 H   0  0  0  0  0  0  0  0  0  0  0  0
   15.9030   -1.5015   12.0122 H   0  0  0  0  0  0  0  0  0  0  0  0
   17.5842   -1.8905   11.5757 H   0  0  0  0  0  0  0  0  0  0  0  0
   16.2435   -2.8334   10.8815 H   0  0  0  0  0  0  0  0  0  0  0  0
   16.2587    0.8192   11.3136 H   0  0  0  0  0  0  0  0  0  0  0  0
   17.9399    0.4301   10.8771 H   0  0  0  0  0  0  0  0  0  0  0  0
   17.1512    2.4257    9.6898 H   0  0  0  0  0  0  0  0  0  0  0  0
   15.8106    1.4829    8.9957 H   0  0  0  0  0  0  0  0  0  0  0  0
   17.4918    1.0938    8.5592 H   0  0  0  0  0  0  0  0  0  0  0  0
  1  2  1  0
  1 17  1  0
  2  5  2  0
  2 14  1  0
  3  4  2  0
  3  6  1  0
  3 14  1  0
  4  5  1  0
  4 10  1  0
  5 12  1  0
  6  7  2  0
  6  8  2  0
  6  9  1  0
  9 22  1  0
  9 23  1  0
  9 24  1  0
 10 11  1  0
 10 13  1  0
 10 25  1  1
 11 12  1  0
 11 15  1  0
 11 16  1  0
 12 26  1  0
 12 27  1  0
 13 28  1  0
 17 18  1  0
 17 29  1  0
 17 30  1  0
 18 19  1  0
 18 20  1  0
 18 31  1  6
 19 32  1  0
 19 33  1  0
 19 34  1  0
 20 21  1  0
 20 35  1  0
 20 36  1  0
 21 37  1  0
 21 38  1  0
 21 39  1  0
M  END
>  <Protein/Binding/ITC_Mean_KD_uM_HIF2a_240-350_human;(Num)>  (16) 
0.050000000000000003

>  <atom.dprop.PartialCharge>  (16) 
-0.2831127 0.17192213 -0.4709584 0.009674035 -0.25007436 1.4530581 -0.654408 -0.654408 -0.3707474 0.1681731 0.39956957 0.0020230226 -0.56879723 0.21792327 -0.22968984 -0.22968984 0.1337187 -0.06366536 -0.085703425 -0.074894994 -0.09183936 0.115810096 0.115810096 0.115810096 0.09312749 0.07874681 0.07874681 0.4144182 0.043415233 0.043415233 0.06271944 0.03852944 0.03852944 0.03852944 0.043802805 0.043802805 0.035571154 0.035571154 0.035571154

>  <experimental dG reference units>  (16) 
uM

>  <experimental dG reference field>  (16) 
Protein/Binding/ITC_Mean_KD_uM_HIF2a_240-350_human;(Num)

>  <kJ/mol experimental dG>  (16) 
-41.93318010283475

>  <kcal/mol experimental dG>  (16) 
-10.022270579071401

$$$$
35j-S
     RDKit          3D

 39 40  0  0  0  0  0  0  0  0999 V2000
   14.2394   -0.3878   10.5716 O   0  0  0  0  0  0  0  0  0  0  0  0
   12.9060   -0.2855   10.2311 C   0  0  0  0  0  0  0  0  0  0  0  0
   10.7535   -0.3301    9.0248 C   0  0  0  0  0  0  0  0  0  0  0  0
   10.6111    0.1075   10.3357 C   0  0  0  0  0  0  0  0  0  0  0  0
   11.8336    0.1177   11.0244 C   0  0  0  0  0  0  0  0  0  0  0  0
    9.4158   -0.6233    7.8509 S   0  0  0  0  0  6  0  0  0  0  0  0
    8.6915    0.6438    7.7066 O   0  0  0  0  0  0  0  0  0  0  0  0
    9.9975   -1.3084    6.6953 O   0  0  0  0  0  0  0  0  0  0  0  0
    8.3394   -1.8463    8.7737 C   0  0  0  0  0  0  0  0  0  0  0  0
    9.4667    0.5095   11.2358 C   0  0  1  0  0  0  0  0  0  0  0  0
   10.1202    0.5960   12.6307 C   0  0  0  0  0  0  0  0  0  0  0  0
   11.6426    0.5559   12.4531 C   0  0  0  0  0  0  0  0  0  0  0  0
    8.9486    1.7279   10.7317 O   0  0  0  0  0  0  0  0  0  0  0  0
   12.4043   -0.6285    8.6100 S   0  0  0  0  0  0  0  0  0  0  0  0
    9.7320   -0.4360   13.3814 F   0  0  0  0  0  0  0  0  0  0  0  0
    9.7807    1.7291   13.2472 F   0  0  0  0  0  0  0  0  0  0  0  0
   15.0689   -0.8202    9.5570 C   0  0  0  0  0  0  0  0  0  0  0  0
   16.4808   -0.8859   10.0593 C   0  0  1  0  0  0  0  0  0  0  0  0
   16.9140    0.4767   10.5128 C   0  0  0  0  0  0  0  0  0  0  0  0
   16.5578   -1.8441   11.2107 C   0  0  0  0  0  0  0  0  0  0  0  0
   15.6562   -1.3741   12.3135 C   0  0  0  0  0  0  0  0  0  0  0  0
    7.6476   -1.3018    9.4112 H   0  0  0  0  0  0  0  0  0  0  0  0
    8.9811   -2.4976    9.3646 H   0  0  0  0  0  0  0  0  0  0  0  0
    7.7955   -2.4396    8.0435 H   0  0  0  0  0  0  0  0  0  0  0  0
    8.6712   -0.2328   11.2480 H   0  0  0  0  0  0  0  0  0  0  0  0
   12.0738    1.5471   12.5990 H   0  0  0  0  0  0  0  0  0  0  0  0
   12.1187   -0.1212   13.1627 H   0  0  0  0  0  0  0  0  0  0  0  0
    8.2302    2.0274   11.3003 H   0  0  0  0  0  0  0  0  0  0  0  0
   14.7541   -1.8103    9.2274 H   0  0  0  0  0  0  0  0  0  0  0  0
   15.0129   -0.1239    8.7203 H   0  0  0  0  0  0  0  0  0  0  0  0
   17.1359   -1.2274    9.2579 H   0  0  0  0  0  0  0  0  0  0  0  0
   16.2588    0.8182   11.3142 H   0  0  0  0  0  0  0  0  0  0  0  0
   16.8580    1.1730    9.6761 H   0  0  0  0  0  0  0  0  0  0  0  0
   17.9400    0.4290   10.8778 H   0  0  0  0  0  0  0  0  0  0  0  0
   16.2430   -2.8342   10.8811 H   0  0  0  0  0  0  0  0  0  0  0  0
   17.5838   -1.8918   11.5757 H   0  0  0  0  0  0  0  0  0  0  0  0
   15.7122   -2.0704   13.1503 H   0  0  0  0  0  0  0  0  0  0  0  0
   14.6302   -1.3263   11.9486 H   0  0  0  0  0  0  0  0  0  0  0  0
   15.9710   -0.3839   12.6431 H   0  0  0  0  0  0  0  0  0  0  0  0
  1  2  1  0
  1 17  1  0
  2  5  2  0
  2 14  1  0
  3  4  2  0
  3  6  1  0
  3 14  1  0
  4  5  1  0
  4 10  1  0
  5 12  1  0
  6  7  2  0
  6  8  2  0
  6  9  1  0
  9 22  1  0
  9 23  1  0
  9 24  1  0
 10 11  1  0
 10 13  1  0
 10 25  1  1
 11 12  1  0
 11 15  1  0
 11 16  1  0
 12 26  1  0
 12 27  1  0
 13 28  1  0
 17 18  1  0
 17 29  1  0
 17 30  1  0
 18 19  1  0
 18 20  1  0
 18 31  1  6
 19 32  1  0
 19 33  1  0
 19 34  1  0
 20 21  1  0
 20 35  1  0
 20 36  1  0
 21 37  1  0
 21 38  1  0
 21 39  1  0
M  END
>  <Protein/Binding/ITC_Mean_KD_uM_HIF2a_240-350_human;(Num)>  (17) 
0.050000000000000003

>  <atom.dprop.PartialCharge>  (17) 
-0.2831127 0.17192213 -0.4709584 0.009674035 -0.25007436 1.4530581 -0.654408 -0.654408 -0.3707474 0.1681731 0.39956957 0.0020230226 -0.56879723 0.21792327 -0.22968984 -0.22968984 0.1337187 -0.06366536 -0.085703425 -0.074894994 -0.09183936 0.115810096 0.115810096 0.115810096 0.09312749 0.07874681 0.07874681 0.4144182 0.043415233 0.043415233 0.06271944 0.03852944 0.03852944 0.03852944 0.043802805 0.043802805 0.035571154 0.035571154 0.035571154

>  <experimental dG reference units>  (17) 
uM

>  <experimental dG reference field>  (17) 
Protein/Binding/ITC_Mean_KD_uM_HIF2a_240-350_human;(Num)

>  <kJ/mol experimental dG>  (17) 
-41.93318010283475

>  <kcal/mol experimental dG>  (17) 
-10.022270579071401

$$$$
35h-R
     RDKit          3D

 40 42  0  0  0  0  0  0  0  0999 V2000
   14.2394   -0.3874   10.5715 O   0  0  0  0  0  0  0  0  0  0  0  0
   12.9060   -0.2855   10.2311 C   0  0  0  0  0  0  0  0  0  0  0  0
   10.7535   -0.3301    9.0248 C   0  0  0  0  0  0  0  0  0  0  0  0
   10.6111    0.1075   10.3357 C   0  0  0  0  0  0  0  0  0  0  0  0
   11.8336    0.1177   11.0244 C   0  0  0  0  0  0  0  0  0  0  0  0
    9.4158   -0.6233    7.8509 S   0  0  0  0  0  6  0  0  0  0  0  0
    8.6915    0.6438    7.7066 O   0  0  0  0  0  0  0  0  0  0  0  0
    9.9975   -1.3084    6.6953 O   0  0  0  0  0  0  0  0  0  0  0  0
    8.3394   -1.8463    8.7737 C   0  0  0  0  0  0  0  0  0  0  0  0
    9.4667    0.5095   11.2358 C   0  0  1  0  0  0  0  0  0  0  0  0
   10.1202    0.5960   12.6307 C   0  0  0  0  0  0  0  0  0  0  0  0
   11.6426    0.5559   12.4531 C   0  0  0  0  0  0  0  0  0  0  0  0
    8.9486    1.7279   10.7317 O   0  0  0  0  0  0  0  0  0  0  0  0
   12.4043   -0.6285    8.6100 S   0  0  0  0  0  0  0  0  0  0  0  0
    9.7807    1.7291   13.2472 F   0  0  0  0  0  0  0  0  0  0  0  0
    9.7320   -0.4360   13.3814 F   0  0  0  0  0  0  0  0  0  0  0  0
   15.0689   -0.8199    9.5570 C   0  0  1  0  0  0  0  0  0  0  0  0
   16.4997   -0.6539    9.9759 C   0  0  0  0  0  0  0  0  0  0  0  0
   16.8140   -1.2235   11.3659 C   0  0  0  0  0  0  0  0  0  0  0  0
   16.5085    0.1693   11.9335 C   0  0  0  0  0  0  0  0  0  0  0  0
   16.8279    0.7340   10.5426 C   0  0  0  0  0  0  0  0  0  0  0  0
   14.7964   -2.2670    9.2709 C   0  0  0  0  0  0  0  0  0  0  0  0
    7.7955   -2.4396    8.0435 H   0  0  0  0  0  0  0  0  0  0  0  0
    7.6476   -1.3018    9.4112 H   0  0  0  0  0  0  0  0  0  0  0  0
    8.9811   -2.4976    9.3646 H   0  0  0  0  0  0  0  0  0  0  0  0
    8.6711   -0.2329   11.2478 H   0  0  0  0  0  0  0  0  0  0  0  0
   12.0741    1.5470   12.5991 H   0  0  0  0  0  0  0  0  0  0  0  0
   12.1185   -0.1215   13.1625 H   0  0  0  0  0  0  0  0  0  0  0  0
    8.2302    2.0274   11.3003 H   0  0  0  0  0  0  0  0  0  0  0  0
   14.8825   -0.2307    8.6591 H   0  0  0  0  0  0  0  0  0  0  0  0
   17.1459   -0.9989    9.1666 H   0  0  0  0  0  0  0  0  0  0  0  0
   16.1583   -2.0270   11.7067 H   0  0  0  0  0  0  0  0  0  0  0  0
   17.8529   -1.5380   11.4934 H   0  0  0  0  0  0  0  0  0  0  0  0
   15.4688    0.3062   12.2414 H   0  0  0  0  0  0  0  0  0  0  0  0
   17.1621    0.5043   12.7410 H   0  0  0  0  0  0  0  0  0  0  0  0
   16.1837    1.5474   10.2035 H   0  0  0  0  0  0  0  0  0  0  0  0
   17.8711    1.0326   10.4123 H   0  0  0  0  0  0  0  0  0  0  0  0
   15.4515   -2.6086    8.4696 H   0  0  0  0  0  0  0  0  0  0  0  0
   13.7567   -2.3876    8.9665 H   0  0  0  0  0  0  0  0  0  0  0  0
   14.9828   -2.8562   10.1688 H   0  0  0  0  0  0  0  0  0  0  0  0
  1  2  1  0
  1 17  1  0
  2  5  2  0
  2 14  1  0
  3  4  2  0
  3  6  1  0
  3 14  1  0
  4  5  1  0
  4 10  1  0
  5 12  1  0
  6  7  2  0
  6  8  2  0
  6  9  1  0
  9 23  1  0
  9 24  1  0
  9 25  1  0
 10 11  1  0
 10 13  1  0
 10 26  1  1
 11 12  1  0
 11 15  1  0
 11 16  1  0
 12 27  1  0
 12 28  1  0
 13 29  1  0
 17 18  1  0
 17 22  1  0
 17 30  1  6
 18 19  1  0
 18 21  1  0
 18 31  1  0
 19 20  1  0
 19 32  1  0
 19 33  1  0
 20 21  1  0
 20 34  1  0
 20 35  1  0
 21 36  1  0
 21 37  1  0
 22 38  1  0
 22 39  1  0
 22 40  1  0
M  END
>  <Protein/Binding/ITC_Mean_KD_uM_HIF2a_240-350_human;(Num)>  (18) 
0.32000000000000001

>  <atom.dprop.PartialCharge>  (18) 
-0.2928725 0.17379189 -0.4810548 0.005523097 -0.25095466 1.4538599 -0.65444344 -0.65444344 -0.37078288 0.1691375 0.40080836 -0.0035436228 -0.5688327 0.23855911 -0.22972533 -0.22972533 0.13421063 -0.080502145 -0.08079293 -0.09573488 -0.08079293 -0.1090044 0.11577462 0.11577462 0.11577462 0.093092 0.079166636 0.079166636 0.4143827 0.047574498 0.07489621 0.05405534 0.05405534 0.051244497 0.051244497 0.05405534 0.05405534 0.05100092 0.05100092 0.05100092

>  <experimental dG reference units>  (18) 
uM

>  <experimental dG reference field>  (18) 
Protein/Binding/ITC_Mean_KD_uM_HIF2a_240-350_human;(Num)

>  <kJ/mol experimental dG>  (18) 
-37.30291696675095

>  <kcal/mol experimental dG>  (18) 
-8.91561112972059

$$$$
35h-S
     RDKit          3D

 40 42  0  0  0  0  0  0  0  0999 V2000
   14.2394   -0.3878   10.5716 O   0  0  0  0  0  0  0  0  0  0  0  0
   12.9060   -0.2855   10.2311 C   0  0  0  0  0  0  0  0  0  0  0  0
   10.7535   -0.3301    9.0248 C   0  0  0  0  0  0  0  0  0  0  0  0
   10.6111    0.1075   10.3357 C   0  0  0  0  0  0  0  0  0  0  0  0
   11.8336    0.1177   11.0244 C   0  0  0  0  0  0  0  0  0  0  0  0
    9.4158   -0.6233    7.8509 S   0  0  0  0  0  6  0  0  0  0  0  0
    9.9975   -1.3084    6.6953 O   0  0  0  0  0  0  0  0  0  0  0  0
    8.6915    0.6438    7.7066 O   0  0  0  0  0  0  0  0  0  0  0  0
    8.3394   -1.8463    8.7737 C   0  0  0  0  0  0  0  0  0  0  0  0
    9.4667    0.5095   11.2358 C   0  0  1  0  0  0  0  0  0  0  0  0
   10.1202    0.5960   12.6307 C   0  0  0  0  0  0  0  0  0  0  0  0
   11.6426    0.5559   12.4531 C   0  0  0  0  0  0  0  0  0  0  0  0
    8.9486    1.7279   10.7317 O   0  0  0  0  0  0  0  0  0  0  0  0
   12.4043   -0.6285    8.6100 S   0  0  0  0  0  0  0  0  0  0  0  0
    9.7320   -0.4360   13.3814 F   0  0  0  0  0  0  0  0  0  0  0  0
    9.7807    1.7291   13.2472 F   0  0  0  0  0  0  0  0  0  0  0  0
   15.0689   -0.8202    9.5570 C   0  0  2  0  0  0  0  0  0  0  0  0
   16.4282   -1.1199   10.1160 C   0  0  0  0  0  0  0  0  0  0  0  0
   16.4520   -2.0233   11.3565 C   0  0  0  0  0  0  0  0  0  0  0  0
   17.5734   -1.1302   11.9044 C   0  0  0  0  0  0  0  0  0  0  0  0
   17.0460   -0.0181   10.9875 C   0  0  0  0  0  0  0  0  0  0  0  0
   15.1826    0.2511    8.5133 C   0  0  0  0  0  0  0  0  0  0  0  0
    7.6476   -1.3018    9.4112 H   0  0  0  0  0  0  0  0  0  0  0  0
    8.9811   -2.4976    9.3646 H   0  0  0  0  0  0  0  0  0  0  0  0
    7.7955   -2.4396    8.0435 H   0  0  0  0  0  0  0  0  0  0  0  0
    8.6712   -0.2328   11.2480 H   0  0  0  0  0  0  0  0  0  0  0  0
   12.0738    1.5471   12.5990 H   0  0  0  0  0  0  0  0  0  0  0  0
   12.1187   -0.1212   13.1627 H   0  0  0  0  0  0  0  0  0  0  0  0
    8.2302    2.0274   11.3003 H   0  0  0  0  0  0  0  0  0  0  0  0
   14.6537   -1.7224    9.1079 H   0  0  0  0  0  0  0  0  0  0  0  0
   17.0759   -1.4611    9.3045 H   0  0  0  0  0  0  0  0  0  0  0  0
   15.5320   -1.9944   11.9458 H   0  0  0  0  0  0  0  0  0  0  0  0
   16.7228   -3.0654   11.1770 H   0  0  0  0  0  0  0  0  0  0  0  0
   17.5302   -0.9204   12.9747 H   0  0  0  0  0  0  0  0  0  0  0  0
   18.5797   -1.4745   11.6528 H   0  0  0  0  0  0  0  0  0  0  0  0
   16.3120    0.6386   11.4613 H   0  0  0  0  0  0  0  0  0  0  0  0
   17.8075    0.5962   10.5034 H   0  0  0  0  0  0  0  0  0  0  0  0
   15.8377   -0.0905    7.7119 H   0  0  0  0  0  0  0  0  0  0  0  0
   15.5978    1.1533    8.9624 H   0  0  0  0  0  0  0  0  0  0  0  0
   14.1948    0.4689    8.1071 H   0  0  0  0  0  0  0  0  0  0  0  0
  1  2  1  0
  1 17  1  0
  2  5  2  0
  2 14  1  0
  3  4  2  0
  3  6  1  0
  3 14  1  0
  4  5  1  0
  4 10  1  0
  5 12  1  0
  6  7  2  0
  6  8  2  0
  6  9  1  0
  9 23  1  0
  9 24  1  0
  9 25  1  0
 10 11  1  0
 10 13  1  0
 10 26  1  1
 11 12  1  0
 11 15  1  0
 11 16  1  0
 12 27  1  0
 12 28  1  0
 13 29  1  0
 17 18  1  0
 17 22  1  0
 17 30  1  6
 18 19  1  0
 18 21  1  0
 18 31  1  0
 19 20  1  0
 19 32  1  0
 19 33  1  0
 20 21  1  0
 20 34  1  0
 20 35  1  0
 21 36  1  0
 21 37  1  0
 22 38  1  0
 22 39  1  0
 22 40  1  0
M  END
>  <Protein/Binding/ITC_Mean_KD_uM_HIF2a_240-350_human;(Num)>  (19) 
0.32000000000000001

>  <atom.dprop.PartialCharge>  (19) 
-0.2928725 0.17379189 -0.4810548 0.005523097 -0.25095466 1.4538599 -0.65444344 -0.65444344 -0.37078288 0.1691375 0.40080836 -0.0035436228 -0.5688327 0.23855911 -0.22972533 -0.22972533 0.13421063 -0.080502145 -0.08079293 -0.09573488 -0.08079293 -0.1090044 0.11577462 0.11577462 0.11577462 0.093092 0.079166636 0.079166636 0.4143827 0.047574498 0.07489621 0.05405534 0.05405534 0.051244497 0.051244497 0.05405534 0.05405534 0.05100092 0.05100092 0.05100092

>  <experimental dG reference units>  (19) 
uM

>  <experimental dG reference field>  (19) 
Protein/Binding/ITC_Mean_KD_uM_HIF2a_240-350_human;(Num)

>  <kJ/mol experimental dG>  (19) 
-37.30291696675095

>  <kcal/mol experimental dG>  (19) 
-8.91561112972059

$$$$
35s
     RDKit          3D

 36 37  0  0  0  0  0  0  0  0999 V2000
   14.2394   -0.3878   10.5716 O   0  0  0  0  0  0  0  0  0  0  0  0
   12.9060   -0.2855   10.2311 C   0  0  0  0  0  0  0  0  0  0  0  0
   10.7535   -0.3301    9.0248 C   0  0  0  0  0  0  0  0  0  0  0  0
   10.6111    0.1075   10.3357 C   0  0  0  0  0  0  0  0  0  0  0  0
   11.8336    0.1177   11.0244 C   0  0  0  0  0  0  0  0  0  0  0  0
    9.4158   -0.6233    7.8509 S   0  0  0  0  0  6  0  0  0  0  0  0
    9.9975   -1.3084    6.6953 O   0  0  0  0  0  0  0  0  0  0  0  0
    8.6915    0.6438    7.7066 O   0  0  0  0  0  0  0  0  0  0  0  0
    8.3394   -1.8463    8.7737 C   0  0  0  0  0  0  0  0  0  0  0  0
    9.4667    0.5095   11.2358 C   0  0  1  0  0  0  0  0  0  0  0  0
   10.1202    0.5960   12.6307 C   0  0  0  0  0  0  0  0  0  0  0  0
   11.6426    0.5559   12.4531 C   0  0  0  0  0  0  0  0  0  0  0  0
    8.9486    1.7279   10.7317 O   0  0  0  0  0  0  0  0  0  0  0  0
   12.4043   -0.6285    8.6100 S   0  0  0  0  0  0  0  0  0  0  0  0
   15.0689   -0.8202    9.5570 C   0  0  0  0  0  0  0  0  0  0  0  0
   16.4808   -0.8859   10.0593 C   0  0  0  0  0  0  0  0  0  0  0  0
   16.5578   -1.8441   11.2107 C   0  0  0  0  0  0  0  0  0  0  0  0
    9.7807    1.7291   13.2472 F   0  0  0  0  0  0  0  0  0  0  0  0
    9.7320   -0.4360   13.3814 F   0  0  0  0  0  0  0  0  0  0  0  0
   16.1676   -3.0499   10.8008 F   0  0  0  0  0  0  0  0  0  0  0  0
   17.8132   -1.8933   11.6532 F   0  0  0  0  0  0  0  0  0  0  0  0
   15.6622   -1.3915   12.3256 C   0  0  0  0  0  0  0  0  0  0  0  0
    7.6476   -1.3018    9.4112 H   0  0  0  0  0  0  0  0  0  0  0  0
    8.9811   -2.4976    9.3646 H   0  0  0  0  0  0  0  0  0  0  0  0
    7.7955   -2.4396    8.0435 H   0  0  0  0  0  0  0  0  0  0  0  0
    8.6712   -0.2328   11.2480 H   0  0  0  0  0  0  0  0  0  0  0  0
   12.0738    1.5471   12.5990 H   0  0  0  0  0  0  0  0  0  0  0  0
   12.1187   -0.1212   13.1627 H   0  0  0  0  0  0  0  0  0  0  0  0
    8.2302    2.0274   11.3003 H   0  0  0  0  0  0  0  0  0  0  0  0
   14.7541   -1.8103    9.2274 H   0  0  0  0  0  0  0  0  0  0  0  0
   15.0129   -0.1239    8.7203 H   0  0  0  0  0  0  0  0  0  0  0  0
   17.1359   -1.2274    9.2579 H   0  0  0  0  0  0  0  0  0  0  0  0
   16.7956    0.1043   10.3888 H   0  0  0  0  0  0  0  0  0  0  0  0
   15.7286   -2.0967   13.1541 H   0  0  0  0  0  0  0  0  0  0  0  0
   14.6331   -1.3457   11.9692 H   0  0  0  0  0  0  0  0  0  0  0  0
   15.9739   -0.4033   12.6637 H   0  0  0  0  0  0  0  0  0  0  0  0
  1  2  1  0
  1 15  1  0
  2  5  2  0
  2 14  1  0
  3  4  2  0
  3  6  1  0
  3 14  1  0
  4  5  1  0
  4 10  1  0
  5 12  1  0
  6  7  2  0
  6  8  2  0
  6  9  1  0
  9 23  1  0
  9 24  1  0
  9 25  1  0
 10 11  1  0
 10 13  1  0
 10 26  1  1
 11 12  1  0
 11 18  1  0
 11 19  1  0
 12 27  1  0
 12 28  1  0
 13 29  1  0
 15 16  1  0
 15 30  1  0
 15 31  1  0
 16 17  1  0
 16 32  1  0
 16 33  1  0
 17 20  1  0
 17 21  1  0
 17 22  1  0
 22 34  1  0
 22 35  1  0
 22 36  1  0
M  END
>  <Protein/Binding/ITC_Mean_KD_uM_HIF2a_240-350_human;(Num)>  (20) 
0.17999999999999999

>  <atom.dprop.PartialCharge>  (20) 
-0.26229045 0.14103772 -0.47257602 0.008951377 -0.23854282 1.4534284 -0.65403736 -0.65403736 -0.37037686 0.16854356 0.39994004 0.0014877282 -0.5684266 0.23352683 0.12743688 -0.12893829 0.41015303 -0.22931926 -0.22931926 -0.2401942 -0.2401942 -0.14498207 0.11618063 0.11618063 0.11618063 0.09349801 0.07911732 0.07911732 0.41478872 0.04946834 0.04946834 0.0892195 0.0892195 0.065430015 0.065430015 0.065430015

>  <experimental dG reference units>  (20) 
uM

>  <experimental dG reference field>  (20) 
Protein/Binding/ITC_Mean_KD_uM_HIF2a_240-350_human;(Num)

>  <kJ/mol experimental dG>  (20) 
-38.73807845687712

>  <kcal/mol experimental dG>  (20) 
-9.258622958144626

$$$$
35n
     RDKit          3D

 37 39  0  0  0  0  0  0  0  0999 V2000
   14.2394   -0.3874   10.5715 O   0  0  0  0  0  0  0  0  0  0  0  0
   12.9060   -0.2855   10.2311 C   0  0  0  0  0  0  0  0  0  0  0  0
   10.7535   -0.3301    9.0248 C   0  0  0  0  0  0  0  0  0  0  0  0
   10.6111    0.1075   10.3357 C   0  0  0  0  0  0  0  0  0  0  0  0
   11.8336    0.1177   11.0244 C   0  0  0  0  0  0  0  0  0  0  0  0
    9.4158   -0.6233    7.8509 S   0  0  0  0  0  6  0  0  0  0  0  0
    8.6915    0.6438    7.7066 O   0  0  0  0  0  0  0  0  0  0  0  0
    9.9975   -1.3084    6.6953 O   0  0  0  0  0  0  0  0  0  0  0  0
    8.3394   -1.8463    8.7737 C   0  0  0  0  0  0  0  0  0  0  0  0
    9.4667    0.5095   11.2358 C   0  0  1  0  0  0  0  0  0  0  0  0
   10.1202    0.5960   12.6307 C   0  0  0  0  0  0  0  0  0  0  0  0
   11.6426    0.5559   12.4531 C   0  0  0  0  0  0  0  0  0  0  0  0
    8.9486    1.7279   10.7317 O   0  0  0  0  0  0  0  0  0  0  0  0
   12.4043   -0.6285    8.6100 S   0  0  0  0  0  0  0  0  0  0  0  0
    9.7807    1.7291   13.2472 F   0  0  0  0  0  0  0  0  0  0  0  0
    9.7320   -0.4360   13.3814 F   0  0  0  0  0  0  0  0  0  0  0  0
   15.0689   -0.8199    9.5570 C   0  0  0  0  0  0  0  0  0  0  0  0
   16.4809   -0.8852   10.0591 C   0  0  0  0  0  0  0  0  0  0  0  0
   16.6842   -1.6368   11.3826 C   0  0  0  0  0  0  0  0  0  0  0  0
   17.6567   -0.5357   11.8184 C   0  0  0  0  0  0  0  0  0  0  0  0
   16.9919    0.3717   10.7779 C   0  0  0  0  0  0  0  0  0  0  0  0
   17.5292   -0.1357   13.0819 F   0  0  0  0  0  0  0  0  0  0  0  0
   18.9421   -0.8025   11.5865 F   0  0  0  0  0  0  0  0  0  0  0  0
    7.7955   -2.4396    8.0435 H   0  0  0  0  0  0  0  0  0  0  0  0
    7.6476   -1.3018    9.4112 H   0  0  0  0  0  0  0  0  0  0  0  0
    8.9811   -2.4976    9.3646 H   0  0  0  0  0  0  0  0  0  0  0  0
    8.6711   -0.2329   11.2478 H   0  0  0  0  0  0  0  0  0  0  0  0
   12.0741    1.5470   12.5991 H   0  0  0  0  0  0  0  0  0  0  0  0
   12.1185   -0.1215   13.1625 H   0  0  0  0  0  0  0  0  0  0  0  0
    8.2302    2.0274   11.3003 H   0  0  0  0  0  0  0  0  0  0  0  0
   14.7543   -1.8102    9.2277 H   0  0  0  0  0  0  0  0  0  0  0  0
   15.0127   -0.1239    8.7201 H   0  0  0  0  0  0  0  0  0  0  0  0
   17.1279   -1.2287    9.2474 H   0  0  0  0  0  0  0  0  0  0  0  0
   15.7885   -1.6955   12.0032 H   0  0  0  0  0  0  0  0  0  0  0  0
   17.1209   -2.6321   11.2999 H   0  0  0  0  0  0  0  0  0  0  0  0
   16.2015    1.0001   11.1916 H   0  0  0  0  0  0  0  0  0  0  0  0
   17.6771    0.9985   10.2070 H   0  0  0  0  0  0  0  0  0  0  0  0
  1  2  1  0
  1 17  1  0
  2  5  2  0
  2 14  1  0
  3  4  2  0
  3  6  1  0
  3 14  1  0
  4  5  1  0
  4 10  1  0
  5 12  1  0
  6  7  2  0
  6  8  2  0
  6  9  1  0
  9 24  1  0
  9 25  1  0
  9 26  1  0
 10 11  1  0
 10 13  1  0
 10 27  1  1
 11 12  1  0
 11 15  1  0
 11 16  1  0
 12 28  1  0
 12 29  1  0
 13 30  1  0
 17 18  1  0
 17 31  1  0
 17 32  1  0
 18 19  1  0
 18 21  1  0
 18 33  1  0
 19 20  1  0
 19 34  1  0
 19 35  1  0
 20 21  1  0
 20 22  1  0
 20 23  1  0
 21 36  1  0
 21 37  1  0
M  END
>  <Protein/Binding/ITC_Mean_KD_uM_HIF2a_240-350_human;(Num)>  (21) 
0.079000000000000001

>  <atom.dprop.PartialCharge>  (21) 
-0.27709568 0.16868576 -0.47544032 0.0103505105 -0.24859062 1.453224 -0.654171 -0.654171 -0.37051046 0.16846263 0.40013948 0.0021518357 -0.56856024 0.21803336 -0.2294529 -0.2294529 0.14028765 -0.07976491 -0.12174003 0.39466077 -0.12174003 -0.22823119 -0.22823119 0.11604701 0.11604701 0.11604701 0.09336439 0.0787537 0.0787537 0.4146551 0.048248015 0.048248015 0.08811644 0.08321891 0.08321891 0.08321891 0.08321891

>  <experimental dG reference units>  (21) 
uM

>  <experimental dG reference field>  (21) 
Protein/Binding/ITC_Mean_KD_uM_HIF2a_240-350_human;(Num)

>  <kJ/mol experimental dG>  (21) 
-40.79220089703617

>  <kcal/mol experimental dG>  (21) 
-9.74957000407174

$$$$
35r
     RDKit          3D

 36 37  0  0  0  0  0  0  0  0999 V2000
   14.2395   -0.3875   10.5714 O   0  0  0  0  0  0  0  0  0  0  0  0
   12.9060   -0.2855   10.2311 C   0  0  0  0  0  0  0  0  0  0  0  0
   10.7535   -0.3301    9.0248 C   0  0  0  0  0  0  0  0  0  0  0  0
   10.6111    0.1075   10.3357 C   0  0  0  0  0  0  0  0  0  0  0  0
   11.8336    0.1177   11.0244 C   0  0  0  0  0  0  0  0  0  0  0  0
    9.4158   -0.6233    7.8509 S   0  0  0  0  0  6  0  0  0  0  0  0
    9.9975   -1.3084    6.6953 O   0  0  0  0  0  0  0  0  0  0  0  0
    8.6915    0.6438    7.7066 O   0  0  0  0  0  0  0  0  0  0  0  0
    8.3394   -1.8463    8.7737 C   0  0  0  0  0  0  0  0  0  0  0  0
    9.4667    0.5095   11.2358 C   0  0  1  0  0  0  0  0  0  0  0  0
   10.1202    0.5960   12.6307 C   0  0  0  0  0  0  0  0  0  0  0  0
   11.6426    0.5559   12.4531 C   0  0  0  0  0  0  0  0  0  0  0  0
    8.9486    1.7279   10.7317 O   0  0  0  0  0  0  0  0  0  0  0  0
   12.4043   -0.6285    8.6100 S   0  0  0  0  0  0  0  0  0  0  0  0
    9.7320   -0.4360   13.3814 F   0  0  0  0  0  0  0  0  0  0  0  0
    9.7807    1.7291   13.2472 F   0  0  0  0  0  0  0  0  0  0  0  0
   15.0688   -0.8200    9.5568 C   0  0  0  0  0  0  0  0  0  0  0  0
   16.4808   -0.8854   10.0588 C   0  0  1  0  0  0  0  0  0  0  0  0
   16.9140    0.4773   10.5120 C   0  0  0  0  0  0  0  0  0  0  0  0
   16.5582   -1.8434   11.2105 C   0  0  0  0  0  0  0  0  0  0  0  0
   16.8406    1.3173    9.4809 F   0  0  0  0  0  0  0  0  0  0  0  0
   16.1060    0.8825   11.4904 F   0  0  0  0  0  0  0  0  0  0  0  0
   18.1681    0.4052   10.9549 F   0  0  0  0  0  0  0  0  0  0  0  0
    7.6476   -1.3018    9.4112 H   0  0  0  0  0  0  0  0  0  0  0  0
    8.9811   -2.4976    9.3646 H   0  0  0  0  0  0  0  0  0  0  0  0
    7.7955   -2.4396    8.0435 H   0  0  0  0  0  0  0  0  0  0  0  0
    8.6711   -0.2329   11.2479 H   0  0  0  0  0  0  0  0  0  0  0  0
   12.1187   -0.1212   13.1626 H   0  0  0  0  0  0  0  0  0  0  0  0
   12.0738    1.5471   12.5990 H   0  0  0  0  0  0  0  0  0  0  0  0
    8.2302    2.0274   11.3003 H   0  0  0  0  0  0  0  0  0  0  0  0
   14.7541   -1.8103    9.2275 H   0  0  0  0  0  0  0  0  0  0  0  0
   15.0126   -0.1239    8.7199 H   0  0  0  0  0  0  0  0  0  0  0  0
   17.1359   -1.2270    9.2574 H   0  0  0  0  0  0  0  0  0  0  0  0
   15.9031   -1.5017   12.0119 H   0  0  0  0  0  0  0  0  0  0  0  0
   17.5842   -1.8909   11.5753 H   0  0  0  0  0  0  0  0  0  0  0  0
   16.2434   -2.8336   10.8812 H   0  0  0  0  0  0  0  0  0  0  0  0
  1  2  1  0
  1 17  1  0
  2  5  2  0
  2 14  1  0
  3  4  2  0
  3  6  1  0
  3 14  1  0
  4  5  1  0
  4 10  1  0
  5 12  1  0
  6  7  2  0
  6  8  2  0
  6  9  1  0
  9 24  1  0
  9 25  1  0
  9 26  1  0
 10 11  1  0
 10 13  1  0
 10 27  1  1
 11 12  1  0
 11 15  1  0
 11 16  1  0
 12 28  1  0
 12 29  1  0
 13 30  1  0
 17 18  1  0
 17 31  1  0
 17 32  1  0
 18 19  1  0
 18 20  1  0
 18 33  1  6
 19 21  1  0
 19 22  1  0
 19 23  1  0
 20 34  1  0
 20 35  1  0
 20 36  1  0
M  END
>  <Protein/Binding/ITC_Mean_KD_uM_HIF2a_240-350_human;(Num)>  (22) 
0.042000000000000003

>  <atom.dprop.PartialCharge>  (22) 
-0.258331 0.14417444 -0.46999502 0.010637231 -0.23974039 1.4540206 -0.6534445 -0.6534445 -0.36978412 0.1691362 0.40053266 0.0029861517 -0.56783384 0.23206724 -0.22872645 -0.22872645 0.1278316 -0.09732478 0.62640786 -0.09401676 -0.23875523 -0.23875523 -0.23875523 0.11677335 0.11677335 0.11677335 0.0940907 0.07971003 0.07971003 0.41538143 0.05540222 0.05540222 0.10190336 0.059306417 0.059306417 0.059306417

>  <experimental dG reference units>  (22) 
uM

>  <experimental dG reference field>  (22) 
Protein/Binding/ITC_Mean_KD_uM_HIF2a_240-350_human;(Num)

>  <kJ/mol experimental dG>  (22) 
-42.3680790605117

>  <kcal/mol experimental dG>  (22) 
-10.126213924596485

$$$$
35q
     RDKit          3D

 36 37  0  0  0  0  0  0  0  0999 V2000
   14.2395   -0.3875   10.5714 O   0  0  0  0  0  0  0  0  0  0  0  0
   12.9060   -0.2855   10.2311 C   0  0  0  0  0  0  0  0  0  0  0  0
   10.7535   -0.3301    9.0248 C   0  0  0  0  0  0  0  0  0  0  0  0
   10.6111    0.1075   10.3357 C   0  0  0  0  0  0  0  0  0  0  0  0
   11.8336    0.1177   11.0244 C   0  0  0  0  0  0  0  0  0  0  0  0
    9.4158   -0.6233    7.8509 S   0  0  0  0  0  6  0  0  0  0  0  0
    8.6915    0.6438    7.7066 O   0  0  0  0  0  0  0  0  0  0  0  0
    9.9975   -1.3084    6.6953 O   0  0  0  0  0  0  0  0  0  0  0  0
    8.3394   -1.8463    8.7737 C   0  0  0  0  0  0  0  0  0  0  0  0
    9.4667    0.5095   11.2358 C   0  0  1  0  0  0  0  0  0  0  0  0
   10.1202    0.5960   12.6307 C   0  0  0  0  0  0  0  0  0  0  0  0
   11.6426    0.5559   12.4531 C   0  0  0  0  0  0  0  0  0  0  0  0
    8.9486    1.7279   10.7317 O   0  0  0  0  0  0  0  0  0  0  0  0
   12.4043   -0.6285    8.6100 S   0  0  0  0  0  0  0  0  0  0  0  0
    9.7807    1.7291   13.2472 F   0  0  0  0  0  0  0  0  0  0  0  0
    9.7320   -0.4360   13.3814 F   0  0  0  0  0  0  0  0  0  0  0  0
   15.0688   -0.8200    9.5568 C   0  0  0  0  0  0  0  0  0  0  0  0
   16.4808   -0.8854   10.0588 C   0  0  2  0  0  0  0  0  0  0  0  0
   16.5582   -1.8434   11.2105 C   0  0  0  0  0  0  0  0  0  0  0  0
   16.9140    0.4773   10.5120 C   0  0  0  0  0  0  0  0  0  0  0  0
   16.1713   -3.0482   10.7948 F   0  0  0  0  0  0  0  0  0  0  0  0
   17.8159   -1.8919   11.6462 F   0  0  0  0  0  0  0  0  0  0  0  0
   15.7538   -1.4145   12.1818 F   0  0  0  0  0  0  0  0  0  0  0  0
    7.6476   -1.3018    9.4112 H   0  0  0  0  0  0  0  0  0  0  0  0
    8.9811   -2.4976    9.3646 H   0  0  0  0  0  0  0  0  0  0  0  0
    7.7955   -2.4396    8.0435 H   0  0  0  0  0  0  0  0  0  0  0  0
    8.6711   -0.2329   11.2479 H   0  0  0  0  0  0  0  0  0  0  0  0
   12.1187   -0.1212   13.1626 H   0  0  0  0  0  0  0  0  0  0  0  0
   12.0738    1.5471   12.5990 H   0  0  0  0  0  0  0  0  0  0  0  0
    8.2302    2.0274   11.3003 H   0  0  0  0  0  0  0  0  0  0  0  0
   14.7541   -1.8103    9.2275 H   0  0  0  0  0  0  0  0  0  0  0  0
   15.0126   -0.1239    8.7199 H   0  0  0  0  0  0  0  0  0  0  0  0
   17.1359   -1.2270    9.2574 H   0  0  0  0  0  0  0  0  0  0  0  0
   16.2588    0.8190   11.3134 H   0  0  0  0  0  0  0  0  0  0  0  0
   16.8578    1.1734    9.6752 H   0  0  0  0  0  0  0  0  0  0  0  0
   17.9400    0.4298   10.8768 H   0  0  0  0  0  0  0  0  0  0  0  0
  1  2  1  0
  1 17  1  0
  2  5  2  0
  2 14  1  0
  3  4  2  0
  3  6  1  0
  3 14  1  0
  4  5  1  0
  4 10  1  0
  5 12  1  0
  6  7  2  0
  6  8  2  0
  6  9  1  0
  9 24  1  0
  9 25  1  0
  9 26  1  0
 10 11  1  0
 10 13  1  0
 10 27  1  1
 11 12  1  0
 11 15  1  0
 11 16  1  0
 12 28  1  0
 12 29  1  0
 13 30  1  0
 17 18  1  0
 17 31  1  0
 17 32  1  0
 18 19  1  0
 18 20  1  0
 18 33  1  6
 19 21  1  0
 19 22  1  0
 19 23  1  0
 20 34  1  0
 20 35  1  0
 20 36  1  0
M  END
>  <Protein/Binding/ITC_Mean_KD_uM_HIF2a_240-350_human;(Num)>  (23) 
0.041000000000000002

>  <atom.dprop.PartialCharge>  (23) 
-0.258331 0.14417444 -0.46999502 0.010637231 -0.23974039 1.4540206 -0.6534445 -0.6534445 -0.36978412 0.1691362 0.40053266 0.0029861517 -0.56783384 0.23206724 -0.22872645 -0.22872645 0.1278316 -0.09732478 0.62640786 -0.09401676 -0.23875523 -0.23875523 -0.23875523 0.11677335 0.11677335 0.11677335 0.0940907 0.07971003 0.07971003 0.41538143 0.05540222 0.05540222 0.10190336 0.059306417 0.059306417 0.059306417

>  <experimental dG reference units>  (23) 
uM

>  <experimental dG reference field>  (23) 
Protein/Binding/ITC_Mean_KD_uM_HIF2a_240-350_human;(Num)

>  <kJ/mol experimental dG>  (23) 
-42.428186869347066

>  <kcal/mol experimental dG>  (23) 
-10.140580035694805

$$$$
35t
     RDKit          3D

 36 37  0  0  0  0  0  0  0  0999 V2000
   14.2394   -0.3878   10.5716 O   0  0  0  0  0  0  0  0  0  0  0  0
   12.9060   -0.2855   10.2311 C   0  0  0  0  0  0  0  0  0  0  0  0
   10.7535   -0.3301    9.0248 C   0  0  0  0  0  0  0  0  0  0  0  0
   10.6111    0.1075   10.3357 C   0  0  0  0  0  0  0  0  0  0  0  0
   11.8336    0.1177   11.0244 C   0  0  0  0  0  0  0  0  0  0  0  0
    9.4158   -0.6233    7.8509 S   0  0  0  0  0  6  0  0  0  0  0  0
    8.6915    0.6438    7.7066 O   0  0  0  0  0  0  0  0  0  0  0  0
    9.9975   -1.3084    6.6953 O   0  0  0  0  0  0  0  0  0  0  0  0
    8.3394   -1.8463    8.7737 C   0  0  0  0  0  0  0  0  0  0  0  0
    9.4667    0.5095   11.2358 C   0  0  1  0  0  0  0  0  0  0  0  0
   10.1202    0.5960   12.6307 C   0  0  0  0  0  0  0  0  0  0  0  0
   11.6426    0.5559   12.4531 C   0  0  0  0  0  0  0  0  0  0  0  0
    8.9486    1.7279   10.7317 O   0  0  0  0  0  0  0  0  0  0  0  0
   12.4043   -0.6285    8.6100 S   0  0  0  0  0  0  0  0  0  0  0  0
    9.7807    1.7291   13.2472 F   0  0  0  0  0  0  0  0  0  0  0  0
    9.7320   -0.4360   13.3814 F   0  0  0  0  0  0  0  0  0  0  0  0
   15.0689   -0.8202    9.5570 C   0  0  0  0  0  0  0  0  0  0  0  0
   16.4808   -0.8859   10.0593 C   0  0  0  0  0  0  0  0  0  0  0  0
   16.5578   -1.8441   11.2107 C   0  0  0  0  0  0  0  0  0  0  0  0
   15.6562   -1.3741   12.3135 C   0  0  0  0  0  0  0  0  0  0  0  0
   15.7340   -2.2329   13.3286 F   0  0  0  0  0  0  0  0  0  0  0  0
   16.0515   -0.1643   12.7065 F   0  0  0  0  0  0  0  0  0  0  0  0
   14.4069   -1.3203   11.8546 F   0  0  0  0  0  0  0  0  0  0  0  0
    7.6476   -1.3018    9.4112 H   0  0  0  0  0  0  0  0  0  0  0  0
    8.9811   -2.4976    9.3646 H   0  0  0  0  0  0  0  0  0  0  0  0
    7.7955   -2.4396    8.0435 H   0  0  0  0  0  0  0  0  0  0  0  0
    8.6712   -0.2328   11.2480 H   0  0  0  0  0  0  0  0  0  0  0  0
   12.0738    1.5471   12.5990 H   0  0  0  0  0  0  0  0  0  0  0  0
   12.1187   -0.1212   13.1627 H   0  0  0  0  0  0  0  0  0  0  0  0
    8.2302    2.0274   11.3003 H   0  0  0  0  0  0  0  0  0  0  0  0
   14.7541   -1.8103    9.2274 H   0  0  0  0  0  0  0  0  0  0  0  0
   15.0129   -0.1239    8.7203 H   0  0  0  0  0  0  0  0  0  0  0  0
   17.1359   -1.2274    9.2579 H   0  0  0  0  0  0  0  0  0  0  0  0
   16.7956    0.1043   10.3888 H   0  0  0  0  0  0  0  0  0  0  0  0
   16.2430   -2.8342   10.8811 H   0  0  0  0  0  0  0  0  0  0  0  0
   17.5838   -1.8918   11.5757 H   0  0  0  0  0  0  0  0  0  0  0  0
  1  2  1  0
  1 17  1  0
  2  5  2  0
  2 14  1  0
  3  4  2  0
  3  6  1  0
  3 14  1  0
  4  5  1  0
  4 10  1  0
  5 12  1  0
  6  7  2  0
  6  8  2  0
  6  9  1  0
  9 24  1  0
  9 25  1  0
  9 26  1  0
 10 11  1  0
 10 13  1  0
 10 27  1  1
 11 12  1  0
 11 15  1  0
 11 16  1  0
 12 28  1  0
 12 29  1  0
 13 30  1  0
 17 18  1  0
 17 31  1  0
 17 32  1  0
 18 19  1  0
 18 33  1  0
 18 34  1  0
 19 20  1  0
 19 35  1  0
 19 36  1  0
 20 21  1  0
 20 22  1  0
 20 23  1  0
M  END
>  <Protein/Binding/ITC_Mean_KD_uM_HIF2a_240-350_human;(Num)>  (24) 
0.23000000000000001

>  <atom.dprop.PartialCharge>  (24) 
-0.27718058 0.16827796 -0.47222212 0.009305194 -0.24592175 1.453782 -0.6536834 -0.6536834 -0.370023 0.16889735 0.4002938 0.001841519 -0.5680728 0.22306648 -0.22896537 -0.22896537 0.12967749 -0.0847573 -0.1170089 0.6295083 -0.23854364 -0.23854364 -0.23854364 0.11653447 0.11653447 0.11653447 0.09385183 0.07947115 0.07947115 0.41514254 0.046558432 0.046558432 0.0787029 0.0787029 0.0817011 0.0817011

>  <experimental dG reference units>  (24) 
uM

>  <experimental dG reference field>  (24) 
Protein/Binding/ITC_Mean_KD_uM_HIF2a_240-350_human;(Num)

>  <kJ/mol experimental dG>  (24) 
-38.12665642919242

>  <kcal/mol experimental dG>  (24) 
-9.11248958632706

$$$$
35b
     RDKit          3D

 33 34  0  0  0  0  0  0  0  0999 V2000
   14.2081   -0.3286   10.6976 O   0  0  0  0  0  0  0  0  0  0  0  0
   12.9111   -0.2551   10.2676 C   0  0  0  0  0  0  0  0  0  0  0  0
   10.7305   -0.3322    9.0258 C   0  0  0  0  0  0  0  0  0  0  0  0
   10.6047    0.0982   10.3281 C   0  0  0  0  0  0  0  0  0  0  0  0
   11.8255    0.1164   11.0221 C   0  0  0  0  0  0  0  0  0  0  0  0
    9.4037   -0.6321    7.8727 S   0  0  0  0  0  6  0  0  0  0  0  0
    8.6830    0.6398    7.6983 O   0  0  0  0  0  0  0  0  0  0  0  0
   10.0046   -1.3203    6.7229 O   0  0  0  0  0  0  0  0  0  0  0  0
    8.3392   -1.8456    8.7649 C   0  0  0  0  0  0  0  0  0  0  0  0
    9.4568    0.4874   11.2194 C   0  0  1  0  0  0  0  0  0  0  0  0
   10.1134    0.6058   12.6324 C   0  0  0  0  0  0  0  0  0  0  0  0
   11.6562    0.5460   12.4496 C   0  0  0  0  0  0  0  0  0  0  0  0
    8.9769    1.7326   10.7317 O   0  0  0  0  0  0  0  0  0  0  0  0
   12.4047   -0.6351    8.6053 S   0  0  0  0  0  0  0  0  0  0  0  0
    9.7636    1.7321   13.2609 F   0  0  0  0  0  0  0  0  0  0  0  0
    9.7267   -0.4370   13.3809 F   0  0  0  0  0  0  0  0  0  0  0  0
   15.3215   -0.2076    9.7813 C   0  0  0  0  0  0  0  0  0  0  0  0
   16.2217   -1.4699    9.9714 C   0  0  0  0  0  0  0  0  0  0  0  0
   16.1371    1.1035    9.9820 C   0  0  0  0  0  0  0  0  0  0  0  0
    7.6772   -2.3159    8.0407 H   0  0  0  0  0  0  0  0  0  0  0  0
    7.7475   -1.3440    9.5342 H   0  0  0  0  0  0  0  0  0  0  0  0
    8.9801   -2.6075    9.2115 H   0  0  0  0  0  0  0  0  0  0  0  0
    8.6568   -0.2488   11.2156 H   0  0  0  0  0  0  0  0  0  0  0  0
   12.1266   -0.1483   13.1450 H   0  0  0  0  0  0  0  0  0  0  0  0
   12.1054    1.5262   12.6015 H   0  0  0  0  0  0  0  0  0  0  0  0
    8.2853    2.0435   11.3002 H   0  0  0  0  0  0  0  0  0  0  0  0
   14.9682   -0.1435    8.7699 H   0  0  0  0  0  0  0  0  0  0  0  0
   17.0824   -1.4411    9.3000 H   0  0  0  0  0  0  0  0  0  0  0  0
   16.5884   -1.5486   10.9972 H   0  0  0  0  0  0  0  0  0  0  0  0
   15.6670   -2.3768    9.7457 H   0  0  0  0  0  0  0  0  0  0  0  0
   16.8886    1.2158    9.2050 H   0  0  0  0  0  0  0  0  0  0  0  0
   15.4840    1.9744    9.9706 H   0  0  0  0  0  0  0  0  0  0  0  0
   16.6468    1.1094   10.9482 H   0  0  0  0  0  0  0  0  0  0  0  0
  1  2  1  0
  1 17  1  0
  2  5  2  0
  2 14  1  0
  3  4  2  0
  3  6  1  0
  3 14  1  0
  4  5  1  0
  4 10  1  0
  5 12  1  0
  6  7  2  0
  6  8  2  0
  6  9  1  0
  9 20  1  0
  9 21  1  0
  9 22  1  0
 10 11  1  0
 10 13  1  0
 10 23  1  1
 11 12  1  0
 11 15  1  0
 11 16  1  0
 12 24  1  0
 12 25  1  0
 13 26  1  0
 17 18  1  0
 17 19  1  0
 17 27  1  0
 18 28  1  0
 18 29  1  0
 18 30  1  0
 19 31  1  0
 19 32  1  0
 19 33  1  0
M  END
>  <Protein/Binding/ITC_Mean_KD_uM_HIF2a_240-350_human;(Num)>  (25) 
1.8

>  <atom.dprop.PartialCharge>  (25) 
-0.2934953 0.17753491 -0.484781 0.0028697662 -0.25272602 1.4543667 -0.65427977 -0.65427977 -0.37061924 0.16920334 0.40074158 -0.005320862 -0.568669 0.25866944 -0.22956167 -0.22956167 0.13043532 -0.1048241 -0.1048241 0.11593826 0.11593826 0.11593826 0.09325564 0.07952786 0.07952786 0.41454634 0.04595147 0.049749553 0.049749553 0.049749553 0.049749553 0.049749553 0.049749553

>  <experimental dG reference units>  (25) 
uM

>  <experimental dG reference field>  (25) 
Protein/Binding/ITC_Mean_KD_uM_HIF2a_240-350_human;(Num)

>  <kJ/mol experimental dG>  (25) 
-32.99461758522771

>  <kcal/mol experimental dG>  (25) 
-7.885902864538171

$$$$
35d
     RDKit          3D

 33 34  0  0  0  0  0  0  0  0999 V2000
   14.2378   -0.3426   10.5162 O   0  0  0  0  0  0  0  0  0  0  0  0
   12.9063   -0.2677   10.2458 C   0  0  0  0  0  0  0  0  0  0  0  0
   10.7230   -0.3283    9.0248 C   0  0  0  0  0  0  0  0  0  0  0  0
   10.6039    0.0985   10.3319 C   0  0  0  0  0  0  0  0  0  0  0  0
   11.8313    0.1139   11.0207 C   0  0  0  0  0  0  0  0  0  0  0  0
    9.4029   -0.6244    7.8710 S   0  0  0  0  0  6  0  0  0  0  0  0
    8.6748    0.6441    7.6966 O   0  0  0  0  0  0  0  0  0  0  0  0
   10.0034   -1.3117    6.7221 O   0  0  0  0  0  0  0  0  0  0  0  0
    8.3365   -1.8477    8.7589 C   0  0  0  0  0  0  0  0  0  0  0  0
    9.4597    0.4939   11.2180 C   0  0  1  0  0  0  0  0  0  0  0  0
   10.1198    0.6007   12.6308 C   0  0  0  0  0  0  0  0  0  0  0  0
   11.6686    0.5374   12.4464 C   0  0  0  0  0  0  0  0  0  0  0  0
    8.9851    1.7326   10.7240 O   0  0  0  0  0  0  0  0  0  0  0  0
   12.3944   -0.6277    8.6014 S   0  0  0  0  0  0  0  0  0  0  0  0
    9.7675    1.7277   13.2587 F   0  0  0  0  0  0  0  0  0  0  0  0
    9.7230   -0.4443   13.3761 F   0  0  0  0  0  0  0  0  0  0  0  0
   14.8470   -1.6382   10.2964 C   0  0  0  0  0  0  0  0  0  0  0  0
   16.3989   -1.5255   10.1834 C   0  0  0  0  0  0  0  0  0  0  0  0
   17.0983   -1.0512   11.4917 C   0  0  0  0  0  0  0  0  0  0  0  0
    7.6670   -2.3138    8.0356 H   0  0  0  0  0  0  0  0  0  0  0  0
    8.9658   -2.6264    9.2048 H   0  0  0  0  0  0  0  0  0  0  0  0
    7.7529   -1.3503    9.5303 H   0  0  0  0  0  0  0  0  0  0  0  0
    8.6493   -0.2396   11.2170 H   0  0  0  0  0  0  0  0  0  0  0  0
   12.1322   -0.1600   13.1415 H   0  0  0  0  0  0  0  0  0  0  0  0
   12.1155    1.5171   12.6045 H   0  0  0  0  0  0  0  0  0  0  0  0
    8.3242    2.0639   11.3221 H   0  0  0  0  0  0  0  0  0  0  0  0
   14.4879   -2.1114    9.3825 H   0  0  0  0  0  0  0  0  0  0  0  0
   14.5834   -2.2996   11.1219 H   0  0  0  0  0  0  0  0  0  0  0  0
   16.6552   -0.8429    9.3692 H   0  0  0  0  0  0  0  0  0  0  0  0
   16.8055   -2.4974    9.9037 H   0  0  0  0  0  0  0  0  0  0  0  0
   18.1776   -0.9951   11.3391 H   0  0  0  0  0  0  0  0  0  0  0  0
   16.8974   -1.7444   12.3042 H   0  0  0  0  0  0  0  0  0  0  0  0
   16.7399   -0.0717   11.7834 H   0  0  0  0  0  0  0  0  0  0  0  0
  1  2  1  0
  1 17  1  0
  2  5  2  0
  2 14  1  0
  3  4  2  0
  3  6  1  0
  3 14  1  0
  4  5  1  0
  4 10  1  0
  5 12  1  0
  6  7  2  0
  6  8  2  0
  6  9  1  0
  9 20  1  0
  9 21  1  0
  9 22  1  0
 10 11  1  0
 10 13  1  0
 10 23  1  1
 11 12  1  0
 11 15  1  0
 11 16  1  0
 12 24  1  0
 12 25  1  0
 13 26  1  0
 17 18  1  0
 17 27  1  0
 17 28  1  0
 18 19  1  0
 18 29  1  0
 18 30  1  0
 19 31  1  0
 19 32  1  0
 19 33  1  0
M  END
>  <Protein/Binding/ITC_Mean_KD_uM_HIF2a_240-350_human;(Num)>  (26) 
0.32000000000000001

>  <atom.dprop.PartialCharge>  (26) 
-0.2771139 0.16477606 -0.4733222 0.008205336 -0.2464015 1.4526829 -0.6547836 -0.6547836 -0.37112296 0.16779761 0.3991941 0.0007417351 -0.5691728 0.2231082 -0.23006545 -0.23006545 0.14051026 -0.08553574 -0.08597526 0.11543454 0.11543454 0.11543454 0.09275194 0.078371264 0.078371264 0.41404265 0.042935744 0.042935744 0.057049125 0.057049125 0.037171885 0.037171885 0.037171885

>  <experimental dG reference units>  (26) 
uM

>  <experimental dG reference field>  (26) 
Protein/Binding/ITC_Mean_KD_uM_HIF2a_240-350_human;(Num)

>  <kJ/mol experimental dG>  (26) 
-37.30291696675095

>  <kcal/mol experimental dG>  (26) 
-8.91561112972059

$$$$
35c
     RDKit          3D

 34 36  0  0  0  0  0  0  0  0999 V2000
   14.1595   -0.6771   10.5512 O   0  0  0  0  0  0  0  0  0  0  0  0
   12.8925   -0.3179   10.2515 C   0  0  0  0  0  0  0  0  0  0  0  0
   10.7217   -0.3152    9.0275 C   0  0  0  0  0  0  0  0  0  0  0  0
   10.6079    0.1055   10.3317 C   0  0  0  0  0  0  0  0  0  0  0  0
   11.8335    0.1188   11.0186 C   0  0  0  0  0  0  0  0  0  0  0  0
    9.3999   -0.6289    7.8714 S   0  0  0  0  0  6  0  0  0  0  0  0
   10.0080   -1.3075    6.7276 O   0  0  0  0  0  0  0  0  0  0  0  0
    8.6657    0.6347    7.6904 O   0  0  0  0  0  0  0  0  0  0  0  0
    8.3420   -1.8426    8.7651 C   0  0  0  0  0  0  0  0  0  0  0  0
    9.4572    0.4902   11.2215 C   0  0  1  0  0  0  0  0  0  0  0  0
   10.1253    0.5993   12.6299 C   0  0  0  0  0  0  0  0  0  0  0  0
   11.6710    0.5272   12.4438 C   0  0  0  0  0  0  0  0  0  0  0  0
    8.9821    1.7275   10.7304 O   0  0  0  0  0  0  0  0  0  0  0  0
   12.3898   -0.6345    8.6006 S   0  0  0  0  0  0  0  0  0  0  0  0
    9.7682    1.7264   13.2571 F   0  0  0  0  0  0  0  0  0  0  0  0
    9.7259   -0.4427   13.3786 F   0  0  0  0  0  0  0  0  0  0  0  0
   15.1157    0.3727   10.3413 C   0  0  0  0  0  0  0  0  0  0  0  0
   16.1989    0.3384   11.4640 C   0  0  0  0  0  0  0  0  0  0  0  0
   17.2232    0.7410   10.3739 C   0  0  0  0  0  0  0  0  0  0  0  0
   16.2855    0.0486    9.3629 C   0  0  0  0  0  0  0  0  0  0  0  0
    7.6874   -2.3177    8.0462 H   0  0  0  0  0  0  0  0  0  0  0  0
    8.9813   -2.6038    9.2075 H   0  0  0  0  0  0  0  0  0  0  0  0
    7.7631   -1.3339    9.5327 H   0  0  0  0  0  0  0  0  0  0  0  0
    8.6551   -0.2419   11.2245 H   0  0  0  0  0  0  0  0  0  0  0  0
   12.1191    1.4955   12.6136 H   0  0  0  0  0  0  0  0  0  0  0  0
   12.1279   -0.1815   13.1356 H   0  0  0  0  0  0  0  0  0  0  0  0
    8.3153    2.0559   11.3218 H   0  0  0  0  0  0  0  0  0  0  0  0
   14.7043    1.3760   10.1437 H   0  0  0  0  0  0  0  0  0  0  0  0
   16.1099    1.0757   12.2629 H   0  0  0  0  0  0  0  0  0  0  0  0
   16.3918   -0.6671   11.8490 H   0  0  0  0  0  0  0  0  0  0  0  0
   17.3094    1.8169   10.2339 H   0  0  0  0  0  0  0  0  0  0  0  0
   18.1836    0.2684   10.4763 H   0  0  0  0  0  0  0  0  0  0  0  0
   16.4537   -1.0147    9.2913 H   0  0  0  0  0  0  0  0  0  0  0  0
   16.2025    0.5168    8.3801 H   0  0  0  0  0  0  0  0  0  0  0  0
  1  2  1  0
  1 17  1  0
  2  5  2  0
  2 14  1  0
  3  4  2  0
  3  6  1  0
  3 14  1  0
  4  5  1  0
  4 10  1  0
  5 12  1  0
  6  7  2  0
  6  8  2  0
  6  9  1  0
  9 21  1  0
  9 22  1  0
  9 23  1  0
 10 11  1  0
 10 13  1  0
 10 24  1  1
 11 12  1  0
 11 15  1  0
 11 16  1  0
 12 25  1  0
 12 26  1  0
 13 27  1  0
 17 18  1  0
 17 20  1  0
 17 28  1  0
 18 19  1  0
 18 29  1  0
 18 30  1  0
 19 20  1  0
 19 31  1  0
 19 32  1  0
 20 33  1  0
 20 34  1  0
M  END
>  <Protein/Binding/ITC_Mean_KD_uM_HIF2a_240-350_human;(Num)>  (27) 
0.37

>  <atom.dprop.PartialCharge>  (27) 
-0.27345416 0.15375665 -0.47633404 0.019330706 -0.23651202 1.4578694 -0.6547845 -0.6547845 -0.3710504 0.16655459 0.39890102 0.0017164722 -0.56873924 0.23614046 -0.22969425 -0.22969425 0.12775257 -0.110600516 -0.09240709 -0.110600516 0.115450546 0.115450546 0.115450546 0.0939703 0.07810168 0.07810168 0.41405866 0.05724108 0.06508311 0.06508311 0.059237912 0.059237912 0.06508311 0.06508311

>  <experimental dG reference units>  (27) 
uM

>  <experimental dG reference field>  (27) 
Protein/Binding/ITC_Mean_KD_uM_HIF2a_240-350_human;(Num)

>  <kJ/mol experimental dG>  (27) 
-36.94078173216336

>  <kcal/mol experimental dG>  (27) 
-8.829058731396596

$$$$
35k
     RDKit          3D

 30 31  0  0  0  0  0  0  0  0999 V2000
   14.2404   -0.2610   10.5010 O   0  0  0  0  0  0  0  0  0  0  0  0
   12.9033   -0.2390   10.2405 C   0  0  0  0  0  0  0  0  0  0  0  0
   10.7252   -0.3364    9.0214 C   0  0  0  0  0  0  0  0  0  0  0  0
   10.6034    0.0875   10.3307 C   0  0  0  0  0  0  0  0  0  0  0  0
   11.8322    0.1183   11.0266 C   0  0  0  0  0  0  0  0  0  0  0  0
    9.3989   -0.6294    7.8665 S   0  0  0  0  0  6  0  0  0  0  0  0
    8.6837    0.6436    7.7011 O   0  0  0  0  0  0  0  0  0  0  0  0
   10.0054   -1.3141    6.7245 O   0  0  0  0  0  0  0  0  0  0  0  0
    8.3392   -1.8478    8.7736 C   0  0  0  0  0  0  0  0  0  0  0  0
    9.4623    0.4854   11.2162 C   0  0  1  0  0  0  0  0  0  0  0  0
   10.1228    0.5958   12.6263 C   0  0  0  0  0  0  0  0  0  0  0  0
   11.6588    0.5432   12.4496 C   0  0  0  0  0  0  0  0  0  0  0  0
    8.9748    1.7337   10.7182 O   0  0  0  0  0  0  0  0  0  0  0  0
   12.3968   -0.6282    8.6064 S   0  0  0  0  0  0  0  0  0  0  0  0
    9.7637    1.7329   13.2576 F   0  0  0  0  0  0  0  0  0  0  0  0
    9.7277   -0.4372   13.3819 F   0  0  0  0  0  0  0  0  0  0  0  0
   14.8986   -1.5380   10.3413 C   0  0  0  0  0  0  0  0  0  0  0  0
   16.9854   -2.5427    9.7078 F   0  0  0  0  0  0  0  0  0  0  0  0
   16.4267   -1.3648   10.0784 C   0  0  0  0  0  0  0  0  0  0  0  0
   17.0571   -0.8927   11.1800 F   0  0  0  0  0  0  0  0  0  0  0  0
    7.6716   -2.3125    8.0472 H   0  0  0  0  0  0  0  0  0  0  0  0
    8.9858   -2.6115    9.2232 H   0  0  0  0  0  0  0  0  0  0  0  0
    7.7635   -1.3381    9.5292 H   0  0  0  0  0  0  0  0  0  0  0  0
    8.6544   -0.2375   11.2065 H   0  0  0  0  0  0  0  0  0  0  0  0
   12.1272   -0.1486   13.1469 H   0  0  0  0  0  0  0  0  0  0  0  0
   12.1005    1.5265   12.6104 H   0  0  0  0  0  0  0  0  0  0  0  0
    8.3026    2.0434   11.3216 H   0  0  0  0  0  0  0  0  0  0  0  0
   14.4641   -2.0932    9.5224 H   0  0  0  0  0  0  0  0  0  0  0  0
   14.7549   -2.1232   11.2476 H   0  0  0  0  0  0  0  0  0  0  0  0
   16.6192   -0.6536    9.2658 H   0  0  0  0  0  0  0  0  0  0  0  0
  1  2  1  0
  1 17  1  0
  2  5  2  0
  2 14  1  0
  3  4  2  0
  3  6  1  0
  3 14  1  0
  4  5  1  0
  4 10  1  0
  5 12  1  0
  6  7  2  0
  6  8  2  0
  6  9  1  0
  9 21  1  0
  9 22  1  0
  9 23  1  0
 10 11  1  0
 10 13  1  0
 10 24  1  1
 11 12  1  0
 11 15  1  0
 11 16  1  0
 12 25  1  0
 12 26  1  0
 13 27  1  0
 17 19  1  0
 17 28  1  0
 17 29  1  0
 18 19  1  0
 19 20  1  0
 19 30  1  0
M  END
>  <Protein/Binding/ITC_Mean_KD_uM_HIF2a_240-350_human;(Num)>  (28) 
0.58999999999999997

>  <atom.dprop.PartialCharge>  (28) 
-0.26332945 0.12333903 -0.46854478 0.01044859 -0.22786407 1.4542326 -0.6532323 -0.6532323 -0.36957192 0.16934836 0.4007448 0.0022177845 -0.56762165 0.24529311 -0.22851422 -0.22851422 0.06796065 -0.22955169 0.39850858 -0.22955169 0.116985545 0.116985545 0.116985545 0.09430289 0.079922214 0.079922214 0.4155936 0.070906416 0.070906416 0.08492428

>  <experimental dG reference units>  (28) 
uM

>  <experimental dG reference field>  (28) 
Protein/Binding/ITC_Mean_KD_uM_HIF2a_240-350_human;(Num)

>  <kJ/mol experimental dG>  (28) 
-35.77686773484699

>  <kcal/mol experimental dG>  (28) 
-8.550876609667062

$$$$
35l
     RDKit          3D

 30 31  0  0  0  0  0  0  0  0999 V2000
   14.2260   -0.2989   10.5384 O   0  0  0  0  0  0  0  0  0  0  0  0
   12.9028   -0.2517   10.2505 C   0  0  0  0  0  0  0  0  0  0  0  0
   10.7251   -0.3271    9.0249 C   0  0  0  0  0  0  0  0  0  0  0  0
   10.6080    0.1006   10.3339 C   0  0  0  0  0  0  0  0  0  0  0  0
   11.8304    0.1200   11.0229 C   0  0  0  0  0  0  0  0  0  0  0  0
    9.3988   -0.6276    7.8779 S   0  0  0  0  0  6  0  0  0  0  0  0
    8.6677    0.6368    7.7011 O   0  0  0  0  0  0  0  0  0  0  0  0
   10.0079   -1.3132    6.7313 O   0  0  0  0  0  0  0  0  0  0  0  0
    8.3422   -1.8445    8.7672 C   0  0  0  0  0  0  0  0  0  0  0  0
    9.4611    0.4904   11.2194 C   0  0  1  0  0  0  0  0  0  0  0  0
   10.1182    0.6044   12.6367 C   0  0  0  0  0  0  0  0  0  0  0  0
   11.6652    0.5428   12.4495 C   0  0  0  0  0  0  0  0  0  0  0  0
    8.9828    1.7311   10.7319 O   0  0  0  0  0  0  0  0  0  0  0  0
   12.3924   -0.6266    8.6086 S   0  0  0  0  0  0  0  0  0  0  0  0
    9.7622    1.7298   13.2617 F   0  0  0  0  0  0  0  0  0  0  0  0
    9.7256   -0.4426   13.3778 F   0  0  0  0  0  0  0  0  0  0  0  0
   14.8497   -1.5644   10.2925 C   0  0  0  0  0  0  0  0  0  0  0  0
   16.3264   -1.5649   10.8154 C   0  0  0  0  0  0  0  0  0  0  0  0
   16.3457   -1.8380   12.1303 F   0  0  0  0  0  0  0  0  0  0  0  0
   16.9230   -0.3744   10.5867 F   0  0  0  0  0  0  0  0  0  0  0  0
   17.0135   -2.5196   10.1562 F   0  0  0  0  0  0  0  0  0  0  0  0
    7.6507   -2.2975    8.0546 H   0  0  0  0  0  0  0  0  0  0  0  0
    8.9767   -2.6250    9.1958 H   0  0  0  0  0  0  0  0  0  0  0  0
    7.7740   -1.3450    9.5503 H   0  0  0  0  0  0  0  0  0  0  0  0
    8.6542   -0.2460   11.2292 H   0  0  0  0  0  0  0  0  0  0  0  0
   12.1271   -0.1503   13.1494 H   0  0  0  0  0  0  0  0  0  0  0  0
   12.1117    1.5273   12.6073 H   0  0  0  0  0  0  0  0  0  0  0  0
    8.3275    2.0640   11.3259 H   0  0  0  0  0  0  0  0  0  0  0  0
   14.8453   -1.8048    9.2279 H   0  0  0  0  0  0  0  0  0  0  0  0
   14.2929   -2.3500   10.8029 H   0  0  0  0  0  0  0  0  0  0  0  0
  1  2  1  0
  1 17  1  0
  2  5  2  0
  2 14  1  0
  3  4  2  0
  3  6  1  0
  3 14  1  0
  4  5  1  0
  4 10  1  0
  5 12  1  0
  6  7  2  0
  6  8  2  0
  6  9  1  0
  9 22  1  0
  9 23  1  0
  9 24  1  0
 10 11  1  0
 10 13  1  0
 10 25  1  1
 11 12  1  0
 11 15  1  0
 11 16  1  0
 12 26  1  0
 12 27  1  0
 13 28  1  0
 17 18  1  0
 17 29  1  0
 17 30  1  0
 18 19  1  0
 18 20  1  0
 18 21  1  0
M  END
>  <Protein/Binding/ITC_Mean_KD_uM_HIF2a_240-350_human;(Num)>  (29) 
0.085000000000000006

>  <atom.dprop.PartialCharge>  (29) 
-0.24262612 0.118512996 -0.4684873 0.011254687 -0.22178365 1.4548668 -0.6525975 -0.6525975 -0.36893722 0.16998291 0.40137935 0.0020150654 -0.5669869 0.25484523 -0.22787948 -0.22787948 0.07714088 0.6350987 -0.22696455 -0.22696455 -0.22696455 0.117620215 0.117620215 0.117620215 0.09493753 0.08055685 0.08055685 0.41622823 0.0802158 0.0802158

>  <experimental dG reference units>  (29) 
uM

>  <experimental dG reference field>  (29) 
Protein/Binding/ITC_Mean_KD_uM_HIF2a_240-350_human;(Num)

>  <kJ/mol experimental dG>  (29) 
-40.60960573998482

>  <kcal/mol experimental dG>  (29) 
-9.70592871414551

$$$$
35m
     RDKit          3D

 33 34  0  0  0  0  0  0  0  0999 V2000
   14.2131   -0.3465   10.5911 O   0  0  0  0  0  0  0  0  0  0  0  0
   12.9057   -0.2716   10.2606 C   0  0  0  0  0  0  0  0  0  0  0  0
   10.7232   -0.3306    9.0291 C   0  0  0  0  0  0  0  0  0  0  0  0
   10.6056    0.0984   10.3336 C   0  0  0  0  0  0  0  0  0  0  0  0
   11.8266    0.1150   11.0234 C   0  0  0  0  0  0  0  0  0  0  0  0
    9.3966   -0.6286    7.8705 S   0  0  0  0  0  6  0  0  0  0  0  0
    8.6810    0.6411    7.6976 O   0  0  0  0  0  0  0  0  0  0  0  0
   10.0052   -1.3139    6.7257 O   0  0  0  0  0  0  0  0  0  0  0  0
    8.3345   -1.8508    8.7648 C   0  0  0  0  0  0  0  0  0  0  0  0
    9.4594    0.4854   11.2191 C   0  0  1  0  0  0  0  0  0  0  0  0
   10.1145    0.5972   12.6327 C   0  0  0  0  0  0  0  0  0  0  0  0
   11.6599    0.5392   12.4429 C   0  0  0  0  0  0  0  0  0  0  0  0
    8.9830    1.7290   10.7350 O   0  0  0  0  0  0  0  0  0  0  0  0
   12.4036   -0.6329    8.6070 S   0  0  0  0  0  0  0  0  0  0  0  0
   14.8705   -1.6031   10.3409 C   0  0  0  0  0  0  0  0  0  0  0  0
   16.3276   -1.5720   10.9325 C   0  0  0  0  0  0  0  0  0  0  0  0
   16.3317   -2.1796   12.1430 F   0  0  0  0  0  0  0  0  0  0  0  0
   17.3530   -2.2763    9.9998 C   0  0  0  0  0  0  0  0  0  0  0  0
   16.7476   -0.2923   11.0984 F   0  0  0  0  0  0  0  0  0  0  0  0
    9.7692    1.7287   13.2583 F   0  0  0  0  0  0  0  0  0  0  0  0
    9.7264   -0.4409   13.3810 F   0  0  0  0  0  0  0  0  0  0  0  0
    7.6205   -2.2677    8.0600 H   0  0  0  0  0  0  0  0  0  0  0  0
    8.9624   -2.6478    9.1559 H   0  0  0  0  0  0  0  0  0  0  0  0
    7.7918   -1.3579    9.5687 H   0  0  0  0  0  0  0  0  0  0  0  0
    8.6659   -0.2420   11.2168 H   0  0  0  0  0  0  0  0  0  0  0  0
   12.1295   -0.1529   13.1394 H   0  0  0  0  0  0  0  0  0  0  0  0
   12.1076    1.5199   12.6015 H   0  0  0  0  0  0  0  0  0  0  0  0
    8.3172    2.0584   11.3248 H   0  0  0  0  0  0  0  0  0  0  0  0
   14.9117   -1.7638    9.2690 H   0  0  0  0  0  0  0  0  0  0  0  0
   14.3177   -2.4453   10.7672 H   0  0  0  0  0  0  0  0  0  0  0  0
   18.3549   -2.2478   10.4341 H   0  0  0  0  0  0  0  0  0  0  0  0
   17.3878   -1.7610    9.0406 H   0  0  0  0  0  0  0  0  0  0  0  0
   17.0797   -3.3144    9.8129 H   0  0  0  0  0  0  0  0  0  0  0  0
  1  2  1  0
  1 15  1  0
  2  5  2  0
  2 14  1  0
  3  4  2  0
  3  6  1  0
  3 14  1  0
  4  5  1  0
  4 10  1  0
  5 12  1  0
  6  7  2  0
  6  8  2  0
  6  9  1  0
  9 22  1  0
  9 23  1  0
  9 24  1  0
 10 11  1  0
 10 13  1  0
 10 25  1  1
 11 12  1  0
 11 20  1  0
 11 21  1  0
 12 26  1  0
 12 27  1  0
 13 28  1  0
 15 16  1  0
 15 29  1  0
 15 30  1  0
 16 17  1  0
 16 18  1  0
 16 19  1  0
 18 31  1  0
 18 32  1  0
 18 33  1  0
M  END
>  <Protein/Binding/ITC_Mean_KD_uM_HIF2a_240-350_human;(Num)>  (30) 
0.091999999999999998

>  <atom.dprop.PartialCharge>  (30) 
-0.25913736 0.13675842 -0.4704254 0.009822115 -0.23424974 1.453897 -0.65356827 -0.65356827 -0.36990786 0.16901246 0.40040892 0.0012524761 -0.56795764 0.23777416 0.09038 0.40535977 -0.22588745 -0.14031595 -0.22588745 -0.22885022 -0.22885022 0.11664961 0.11664961 0.11664961 0.09396696 0.07958628 0.07958628 0.41525766 0.06601596 0.06601596 0.06785415 0.06785415 0.06785415

>  <experimental dG reference units>  (30) 
uM

>  <experimental dG reference field>  (30) 
Protein/Binding/ITC_Mean_KD_uM_HIF2a_240-350_human;(Num)

>  <kJ/mol experimental dG>  (30) 
-40.412209298264095

>  <kcal/mol experimental dG>  (30) 
-9.658749832281092

$$$$
35o
     RDKit          3D

 33 34  0  0  0  0  0  0  0  0999 V2000
   14.1993   -0.3963   10.6109 O   0  0  0  0  0  0  0  0  0  0  0  0
   12.9021   -0.2539   10.2535 C   0  0  0  0  0  0  0  0  0  0  0  0
   10.7189   -0.3287    9.0313 C   0  0  0  0  0  0  0  0  0  0  0  0
   10.6018    0.0965   10.3314 C   0  0  0  0  0  0  0  0  0  0  0  0
   11.8271    0.1204   11.0152 C   0  0  0  0  0  0  0  0  0  0  0  0
    9.4032   -0.6263    7.8771 S   0  0  0  0  0  6  0  0  0  0  0  0
    8.6690    0.6419    7.7000 O   0  0  0  0  0  0  0  0  0  0  0  0
   10.0112   -1.3122    6.7292 O   0  0  0  0  0  0  0  0  0  0  0  0
    8.3382   -1.8502    8.7584 C   0  0  0  0  0  0  0  0  0  0  0  0
    9.4585    0.4880   11.2173 C   0  0  1  0  0  0  0  0  0  0  0  0
   10.1155    0.6022   12.6285 C   0  0  0  0  0  0  0  0  0  0  0  0
   11.6641    0.5362   12.4414 C   0  0  0  0  0  0  0  0  0  0  0  0
    8.9834    1.7290   10.7297 O   0  0  0  0  0  0  0  0  0  0  0  0
   12.3933   -0.6389    8.6065 S   0  0  0  0  0  0  0  0  0  0  0  0
    9.7286   -0.4380   13.3774 F   0  0  0  0  0  0  0  0  0  0  0  0
    9.7684    1.7303   13.2585 F   0  0  0  0  0  0  0  0  0  0  0  0
   15.2073    0.0451    9.6889 C   0  0  0  0  0  0  0  0  0  0  0  0
   16.3184   -1.0469    9.6011 C   0  0  0  0  0  0  0  0  0  0  0  0
   17.1524   -1.1767   10.9206 C   0  0  0  0  0  0  0  0  0  0  0  0
   16.3776   -1.5236   11.9735 F   0  0  0  0  0  0  0  0  0  0  0  0
   17.7438    0.0065   11.1723 F   0  0  0  0  0  0  0  0  0  0  0  0
   18.1103   -2.1130   10.7722 F   0  0  0  0  0  0  0  0  0  0  0  0
    7.6487   -2.2937    8.0359 H   0  0  0  0  0  0  0  0  0  0  0  0
    8.9680   -2.6387    9.1708 H   0  0  0  0  0  0  0  0  0  0  0  0
    7.7719   -1.3593    9.5509 H   0  0  0  0  0  0  0  0  0  0  0  0
    8.6553   -0.2414   11.2189 H   0  0  0  0  0  0  0  0  0  0  0  0
   12.1320   -0.1607   13.1393 H   0  0  0  0  0  0  0  0  0  0  0  0
   12.1140    1.5151   12.6059 H   0  0  0  0  0  0  0  0  0  0  0  0
    8.3025    2.0495   11.3090 H   0  0  0  0  0  0  0  0  0  0  0  0
   15.6355    0.9753   10.0740 H   0  0  0  0  0  0  0  0  0  0  0  0
   14.8397    0.2883    8.6960 H   0  0  0  0  0  0  0  0  0  0  0  0
   16.9964   -0.7978    8.7812 H   0  0  0  0  0  0  0  0  0  0  0  0
   15.8671   -2.0067    9.3479 H   0  0  0  0  0  0  0  0  0  0  0  0
  1  2  1  0
  1 17  1  0
  2  5  2  0
  2 14  1  0
  3  4  2  0
  3  6  1  0
  3 14  1  0
  4  5  1  0
  4 10  1  0
  5 12  1  0
  6  7  2  0
  6  8  2  0
  6  9  1  0
  9 23  1  0
  9 24  1  0
  9 25  1  0
 10 11  1  0
 10 13  1  0
 10 26  1  1
 11 12  1  0
 11 15  1  0
 11 16  1  0
 12 27  1  0
 12 28  1  0
 13 29  1  0
 17 18  1  0
 17 30  1  0
 17 31  1  0
 18 19  1  0
 18 32  1  0
 18 33  1  0
 19 20  1  0
 19 21  1  0
 19 22  1  0
M  END
>  <Protein/Binding/ITC_Mean_KD_uM_HIF2a_240-350_human;(Num)>  (31) 
0.19

>  <atom.dprop.PartialCharge>  (31) 
-0.24989082 0.12960991 -0.4720714 0.009455882 -0.23229143 1.4539325 -0.6535327 -0.6535327 -0.3698723 0.16904801 0.40044448 0.0019921996 -0.56792206 0.24270332 -0.22881465 -0.22881465 0.11851015 -0.12682277 0.6317137 -0.23714672 -0.23714672 -0.23714672 0.11668517 0.11668517 0.11668517 0.094002515 0.079621844 0.079621844 0.41529322 0.059553772 0.059553772 0.09994642 0.09994642

>  <experimental dG reference units>  (31) 
uM

>  <experimental dG reference field>  (31) 
Protein/Binding/ITC_Mean_KD_uM_HIF2a_240-350_human;(Num)

>  <kJ/mol experimental dG>  (31) 
-38.603215701641936

>  <kcal/mol experimental dG>  (31) 
-9.226389986052087

$$$$
19a-bindingpose1
     RDKit          3D

 34 36  0  0  0  0  0  0  0  0999 V2000
   14.0278    0.5510    9.9466 O   0  0  0  0  0  0  0  0  0  0  0  0
   12.7818    0.0780   10.0226 C   0  0  0  0  0  0  0  0  0  0  0  0
   10.5698   -0.3676    9.0447 C   0  0  0  0  0  0  0  0  0  0  0  0
   10.5129    0.0255   10.3539 C   0  0  0  0  0  0  0  0  0  0  0  0
   11.7734    0.1731   10.9446 C   0  0  0  0  0  0  0  0  0  0  0  0
    9.2672   -0.6259    7.9019 S   0  0  0  0  0  6  0  0  0  0  0  0
    8.5777    0.6558    7.7047 O   0  0  0  0  0  0  0  0  0  0  0  0
    9.8771   -1.3378    6.7721 O   0  0  0  0  0  0  0  0  0  0  0  0
    8.1922   -1.7881    8.7713 C   0  0  0  0  0  0  0  0  0  0  0  0
    9.4221    0.4352   11.2712 C   0  0  1  0  0  0  0  0  0  0  0  0
   10.1367    0.6145   12.6359 C   0  0  0  0  0  0  0  0  0  0  0  0
   11.6718    0.5895   12.3714 C   0  0  0  0  0  0  0  0  0  0  0  0
    8.9843    1.6801   10.7747 O   0  0  0  0  0  0  0  0  0  0  0  0
   12.2119   -0.5361    8.5095 S   0  0  0  0  0  0  0  0  0  0  0  0
    9.7836   -0.4256   13.3919 F   0  0  0  0  0  0  0  0  0  0  0  0
    9.7567    1.7239   13.2741 F   0  0  0  0  0  0  0  0  0  0  0  0
   15.0698   -0.1091   10.5029 C   0  0  0  0  0  0  0  0  0  0  0  0
   16.1835    0.6903   10.7429 C   0  0  0  0  0  0  0  0  0  0  0  0
   17.2859    0.1644   11.3867 C   0  0  0  0  0  0  0  0  0  0  0  0
   17.3833   -1.2345   11.5720 C   0  0  0  0  0  0  0  0  0  0  0  0
   16.2636   -2.0474   11.3555 C   0  0  0  0  0  0  0  0  0  0  0  0
   15.0870   -1.4822   10.8270 C   0  0  0  0  0  0  0  0  0  0  0  0
   18.1832    1.0441   11.8932 F   0  0  0  0  0  0  0  0  0  0  0  0
    7.4660   -2.1768    8.0662 H   0  0  0  0  0  0  0  0  0  0  0  0
    8.7924   -2.6106    9.1577 H   0  0  0  0  0  0  0  0  0  0  0  0
    7.6754   -1.2770    9.5753 H   0  0  0  0  0  0  0  0  0  0  0  0
    8.5993   -0.2742   11.3198 H   0  0  0  0  0  0  0  0  0  0  0  0
   12.1049    1.5790   12.5097 H   0  0  0  0  0  0  0  0  0  0  0  0
   12.1887   -0.0968   13.0449 H   0  0  0  0  0  0  0  0  0  0  0  0
    8.3174    2.0290   11.3542 H   0  0  0  0  0  0  0  0  0  0  0  0
   16.1831    1.7443   10.5193 H   0  0  0  0  0  0  0  0  0  0  0  0
   18.2824   -1.6822   11.9698 H   0  0  0  0  0  0  0  0  0  0  0  0
   16.3093   -3.1032   11.5748 H   0  0  0  0  0  0  0  0  0  0  0  0
   14.2329   -2.1123   10.6390 H   0  0  0  0  0  0  0  0  0  0  0  0
  1  2  1  0
  1 17  1  0
  2  5  2  0
  2 14  1  0
  3  4  2  0
  3  6  1  0
  3 14  1  0
  4  5  1  0
  4 10  1  0
  5 12  1  0
  6  7  2  0
  6  8  2  0
  6  9  1  0
  9 24  1  0
  9 25  1  0
  9 26  1  0
 10 11  1  0
 10 13  1  0
 10 27  1  1
 11 12  1  0
 11 15  1  0
 11 16  1  0
 12 28  1  0
 12 29  1  0
 13 30  1  0
 17 18  2  0
 17 22  1  0
 18 19  1  0
 18 31  1  0
 19 20  2  0
 19 23  1  0
 20 21  1  0
 20 32  1  0
 21 22  2  0
 21 33  1  0
 22 34  1  0
M  END
>  <Protein/Binding/ITC_Mean_KD_uM_HIF2a_240-350_human;(Num)>  (32) 
1

>  <atom.dprop.PartialCharge>  (32) 
-0.211349 0.10272254 -0.47846502 -9.5363706e-05 -0.19667278 1.4588176 -0.6532229 -0.6532229 -0.37071386 0.17399955 0.40345502 -0.008703634 -0.56768435 0.28463835 -0.22847736 -0.22847736 0.10870431 -0.16610003 0.13966629 -0.16663398 -0.09063284 -0.14960188 -0.13196415 0.11677599 0.11677599 0.11677599 0.093198985 0.079748966 0.079748966 0.41538405 0.16259627 0.15293413 0.14417052 0.15190351

>  <experimental dG reference units>  (32) 
uM

>  <experimental dG reference field>  (32) 
Protein/Binding/ITC_Mean_KD_uM_HIF2a_240-350_human;(Num)

>  <kJ/mol experimental dG>  (32) 
-34.46076522989647

>  <kcal/mol experimental dG>  (32) 
-8.236320561638735

$$$$
19a-bindingpose2
     RDKit          3D

 34 36  0  0  0  0  0  0  0  0999 V2000
   14.0278    0.5510    9.9466 O   0  0  0  0  0  0  0  0  0  0  0  0
   12.7818    0.0780   10.0226 C   0  0  0  0  0  0  0  0  0  0  0  0
   10.5698   -0.3676    9.0447 C   0  0  0  0  0  0  0  0  0  0  0  0
   10.5129    0.0255   10.3539 C   0  0  0  0  0  0  0  0  0  0  0  0
   11.7734    0.1731   10.9446 C   0  0  0  0  0  0  0  0  0  0  0  0
    9.2672   -0.6259    7.9019 S   0  0  0  0  0  6  0  0  0  0  0  0
    8.5777    0.6558    7.7047 O   0  0  0  0  0  0  0  0  0  0  0  0
    9.8771   -1.3378    6.7721 O   0  0  0  0  0  0  0  0  0  0  0  0
    8.1922   -1.7881    8.7713 C   0  0  0  0  0  0  0  0  0  0  0  0
    9.4221    0.4352   11.2712 C   0  0  1  0  0  0  0  0  0  0  0  0
   10.1367    0.6145   12.6359 C   0  0  0  0  0  0  0  0  0  0  0  0
   11.6718    0.5895   12.3714 C   0  0  0  0  0  0  0  0  0  0  0  0
    8.9843    1.6801   10.7747 O   0  0  0  0  0  0  0  0  0  0  0  0
   12.2119   -0.5361    8.5095 S   0  0  0  0  0  0  0  0  0  0  0  0
    9.7836   -0.4256   13.3919 F   0  0  0  0  0  0  0  0  0  0  0  0
    9.7567    1.7239   13.2741 F   0  0  0  0  0  0  0  0  0  0  0  0
   15.0698   -0.1091   10.5029 C   0  0  0  0  0  0  0  0  0  0  0  0
   14.8895   -1.4867   10.5835 C   0  0  0  0  0  0  0  0  0  0  0  0
   15.9100   -2.2912   11.0503 C   0  0  0  0  0  0  0  0  0  0  0  0
   17.0314   -1.7005   11.6783 C   0  0  0  0  0  0  0  0  0  0  0  0
   17.2362   -0.3182   11.5856 C   0  0  0  0  0  0  0  0  0  0  0  0
   16.2540    0.4902   10.9815 C   0  0  0  0  0  0  0  0  0  0  0  0
   15.8172   -3.6182   10.7930 F   0  0  0  0  0  0  0  0  0  0  0  0
    7.4660   -2.1768    8.0662 H   0  0  0  0  0  0  0  0  0  0  0  0
    8.7924   -2.6106    9.1577 H   0  0  0  0  0  0  0  0  0  0  0  0
    7.6754   -1.2770    9.5753 H   0  0  0  0  0  0  0  0  0  0  0  0
    8.5993   -0.2742   11.3198 H   0  0  0  0  0  0  0  0  0  0  0  0
   12.1049    1.5790   12.5097 H   0  0  0  0  0  0  0  0  0  0  0  0
   12.1887   -0.0968   13.0449 H   0  0  0  0  0  0  0  0  0  0  0  0
    8.3174    2.0290   11.3542 H   0  0  0  0  0  0  0  0  0  0  0  0
   14.0003   -1.9647   10.2070 H   0  0  0  0  0  0  0  0  0  0  0  0
   17.7886   -2.3083   12.1517 H   0  0  0  0  0  0  0  0  0  0  0  0
   18.1323    0.1258   11.9916 H   0  0  0  0  0  0  0  0  0  0  0  0
   16.4014    1.5569   10.9308 H   0  0  0  0  0  0  0  0  0  0  0  0
  1  2  1  0
  1 17  1  0
  2  5  2  0
  2 14  1  0
  3  4  2  0
  3  6  1  0
  3 14  1  0
  4  5  1  0
  4 10  1  0
  5 12  1  0
  6  7  2  0
  6  8  2  0
  6  9  1  0
  9 24  1  0
  9 25  1  0
  9 26  1  0
 10 11  1  0
 10 13  1  0
 10 27  1  1
 11 12  1  0
 11 15  1  0
 11 16  1  0
 12 28  1  0
 12 29  1  0
 13 30  1  0
 17 18  2  0
 17 22  1  0
 18 19  1  0
 18 31  1  0
 19 20  2  0
 19 23  1  0
 20 21  1  0
 20 32  1  0
 21 22  2  0
 21 33  1  0
 22 34  1  0
M  END
>  <Protein/Binding/ITC_Mean_KD_uM_HIF2a_240-350_human;(Num)>  (33) 
1

>  <atom.dprop.PartialCharge>  (33) 
-0.211349 0.10272254 -0.47846502 -9.5363706e-05 -0.19667278 1.4588176 -0.6532229 -0.6532229 -0.37071386 0.17399955 0.40345502 -0.008703634 -0.56768435 0.28463835 -0.22847736 -0.22847736 0.10870431 -0.16610003 0.13966629 -0.16663398 -0.09063284 -0.14960188 -0.13196415 0.11677599 0.11677599 0.11677599 0.093198985 0.079748966 0.079748966 0.41538405 0.16259627 0.15293413 0.14417052 0.15190351

>  <experimental dG reference units>  (33) 
uM

>  <experimental dG reference field>  (33) 
Protein/Binding/ITC_Mean_KD_uM_HIF2a_240-350_human;(Num)

>  <kJ/mol experimental dG>  (33) 
-34.46076522989647

>  <kcal/mol experimental dG>  (33) 
-8.236320561638735

$$$$
19c-bindingpose1
     RDKit          3D

 35 37  0  0  0  0  0  0  0  0999 V2000
   14.7423   -0.3736   10.1048 C   0  0  0  0  0  0  0  0  0  0  0  0
   13.8050    0.2010    9.3444 O   0  0  0  0  0  0  0  0  0  0  0  0
   12.5379   -0.0341    9.6196 C   0  0  0  0  0  0  0  0  0  0  0  0
   11.6816    0.2712   10.6387 C   0  0  0  0  0  0  0  0  0  0  0  0
   10.3511    0.1550   10.2417 C   0  0  0  0  0  0  0  0  0  0  0  0
   10.2280   -0.3025    8.9535 C   0  0  0  0  0  0  0  0  0  0  0  0
   11.7515   -0.6353    8.2346 S   0  0  0  0  0  0  0  0  0  0  0  0
    8.8125   -0.5840    7.9918 S   0  0  0  0  0  6  0  0  0  0  0  0
    8.1017    0.6979    7.9107 O   0  0  0  0  0  0  0  0  0  0  0  0
    7.9510   -1.7119    9.1077 C   0  0  0  0  0  0  0  0  0  0  0  0
    9.2474   -1.3090    6.7861 O   0  0  0  0  0  0  0  0  0  0  0  0
    9.4287    0.6454   11.3013 C   0  0  1  0  0  0  0  0  0  0  0  0
   10.3558    0.8145   12.5345 C   0  0  0  0  0  0  0  0  0  0  0  0
   11.8158    0.8232   12.0141 C   0  0  0  0  0  0  0  0  0  0  0  0
   10.1970   -0.2616   13.3074 F   0  0  0  0  0  0  0  0  0  0  0  0
   10.0501    1.8863   13.2647 F   0  0  0  0  0  0  0  0  0  0  0  0
    8.9834    1.8931   10.8230 O   0  0  0  0  0  0  0  0  0  0  0  0
   15.8262    0.4478   10.2840 C   0  0  0  0  0  0  0  0  0  0  0  0
   16.8529   -0.0113   11.0700 C   0  0  0  0  0  0  0  0  0  0  0  0
   16.9313   -1.3151   11.5575 C   0  0  0  0  0  0  0  0  0  0  0  0
   15.8163   -2.1172   11.3860 C   0  0  0  0  0  0  0  0  0  0  0  0
   14.6895   -1.6656   10.6704 C   0  0  0  0  0  0  0  0  0  0  0  0
   15.8647   -3.3124   11.9725 F   0  0  0  0  0  0  0  0  0  0  0  0
   17.6088    1.0294   11.5733 C   0  0  0  0  0  0  0  0  0  0  0  0
   18.1834    1.8876   11.9961 N   0  0  0  0  0  0  0  0  0  0  0  0
    6.9838   -2.0003    8.7371 H   0  0  0  0  0  0  0  0  0  0  0  0
    8.5854   -2.5879    9.2479 H   0  0  0  0  0  0  0  0  0  0  0  0
    7.7848   -1.2179   10.0495 H   0  0  0  0  0  0  0  0  0  0  0  0
    8.5875   -0.0042   11.5292 H   0  0  0  0  0  0  0  0  0  0  0  0
   12.4913    0.2432   12.6437 H   0  0  0  0  0  0  0  0  0  0  0  0
   12.1845    1.8458   11.9640 H   0  0  0  0  0  0  0  0  0  0  0  0
    8.3424    2.2460   11.4308 H   0  0  0  0  0  0  0  0  0  0  0  0
   15.7949    1.4625    9.9059 H   0  0  0  0  0  0  0  0  0  0  0  0
   17.7563   -1.7122   12.1302 H   0  0  0  0  0  0  0  0  0  0  0  0
   13.8246   -2.3000   10.5468 H   0  0  0  0  0  0  0  0  0  0  0  0
  1  2  1  0
  1 18  2  0
  1 22  1  0
  2  3  1  0
  3  4  2  0
  3  7  1  0
  4  5  1  0
  4 14  1  0
  5  6  2  0
  5 12  1  0
  6  7  1  0
  6  8  1  0
  8  9  2  0
  8 10  1  0
  8 11  2  0
 10 26  1  0
 10 27  1  0
 10 28  1  0
 12 13  1  0
 12 17  1  0
 12 29  1  1
 13 14  1  0
 13 15  1  0
 13 16  1  0
 14 30  1  0
 14 31  1  0
 17 32  1  0
 18 19  1  0
 18 33  1  0
 19 20  2  0
 19 24  1  0
 20 21  1  0
 20 34  1  0
 21 22  2  0
 21 23  1  0
 22 35  1  0
 24 25  3  0
M  END
>  <Protein/Binding/ITC_Mean_KD_uM_HIF2a_240-350_human;(Num)>  (34) 
0.95999999999999996

>  <atom.dprop.PartialCharge>  (34) 
0.124895975 -0.20352152 0.10302239 -0.1950494 0.00068752095 -0.477682 0.2878521 1.4595999 -0.6524398 -0.36993092 -0.6524398 0.17478235 0.4042378 -0.007920805 -0.2276943 -0.2276943 -0.5669013 -0.11442585 0.031108383 -0.14288718 0.1417144 -0.17531396 -0.12803717 0.23036522 -0.34102693 0.11755893 0.11755893 0.11755893 0.09398188 0.080531865 0.080531865 0.41616696 0.16432437 0.16831546 0.16816986

>  <experimental dG reference units>  (34) 
uM

>  <experimental dG reference field>  (34) 
Protein/Binding/ITC_Mean_KD_uM_HIF2a_240-350_human;(Num)

>  <kJ/mol experimental dG>  (34) 
-34.5625897092363

>  <kcal/mol experimental dG>  (34) 
-8.260657196280185

$$$$
19c-bindingpose2
     RDKit          3D

 35 37  0  0  0  0  0  0  0  0999 V2000
   14.7423   -0.3736   10.1048 C   0  0  0  0  0  0  0  0  0  0  0  0
   13.8050    0.2010    9.3444 O   0  0  0  0  0  0  0  0  0  0  0  0
   12.5379   -0.0341    9.6196 C   0  0  0  0  0  0  0  0  0  0  0  0
   11.6816    0.2712   10.6387 C   0  0  0  0  0  0  0  0  0  0  0  0
   10.3511    0.1550   10.2417 C   0  0  0  0  0  0  0  0  0  0  0  0
   10.2280   -0.3025    8.9535 C   0  0  0  0  0  0  0  0  0  0  0  0
   11.7515   -0.6353    8.2346 S   0  0  0  0  0  0  0  0  0  0  0  0
    8.8125   -0.5840    7.9918 S   0  0  0  0  0  6  0  0  0  0  0  0
    8.1017    0.6979    7.9107 O   0  0  0  0  0  0  0  0  0  0  0  0
    7.9510   -1.7119    9.1077 C   0  0  0  0  0  0  0  0  0  0  0  0
    9.2474   -1.3090    6.7861 O   0  0  0  0  0  0  0  0  0  0  0  0
    9.4287    0.6454   11.3013 C   0  0  1  0  0  0  0  0  0  0  0  0
   10.3558    0.8145   12.5345 C   0  0  0  0  0  0  0  0  0  0  0  0
   11.8158    0.8232   12.0141 C   0  0  0  0  0  0  0  0  0  0  0  0
   10.1970   -0.2616   13.3074 F   0  0  0  0  0  0  0  0  0  0  0  0
   10.0501    1.8863   13.2647 F   0  0  0  0  0  0  0  0  0  0  0  0
    8.9834    1.8931   10.8230 O   0  0  0  0  0  0  0  0  0  0  0  0
   14.3894   -1.6474   10.4717 C   0  0  0  0  0  0  0  0  0  0  0  0
   15.2784   -2.3622   11.2343 C   0  0  0  0  0  0  0  0  0  0  0  0
   16.4349   -1.8170   11.7900 C   0  0  0  0  0  0  0  0  0  0  0  0
   16.7833   -0.5397   11.3862 C   0  0  0  0  0  0  0  0  0  0  0  0
   15.9574    0.2091   10.5242 C   0  0  0  0  0  0  0  0  0  0  0  0
   17.9571   -0.0904   11.8281 F   0  0  0  0  0  0  0  0  0  0  0  0
   15.0656   -3.7219   11.1178 C   0  0  0  0  0  0  0  0  0  0  0  0
   14.8971   -4.8166   10.9808 N   0  0  0  0  0  0  0  0  0  0  0  0
    6.9838   -2.0003    8.7371 H   0  0  0  0  0  0  0  0  0  0  0  0
    8.5854   -2.5879    9.2479 H   0  0  0  0  0  0  0  0  0  0  0  0
    7.7848   -1.2179   10.0495 H   0  0  0  0  0  0  0  0  0  0  0  0
    8.5875   -0.0042   11.5292 H   0  0  0  0  0  0  0  0  0  0  0  0
   12.4913    0.2432   12.6437 H   0  0  0  0  0  0  0  0  0  0  0  0
   12.1845    1.8458   11.9640 H   0  0  0  0  0  0  0  0  0  0  0  0
    8.3424    2.2460   11.4308 H   0  0  0  0  0  0  0  0  0  0  0  0
   13.4899   -2.0908   10.0620 H   0  0  0  0  0  0  0  0  0  0  0  0
   17.1181   -2.3461   12.4380 H   0  0  0  0  0  0  0  0  0  0  0  0
   16.2424    1.2031   10.2138 H   0  0  0  0  0  0  0  0  0  0  0  0
  1  2  1  0
  1 18  2  0
  1 22  1  0
  2  3  1  0
  3  4  2  0
  3  7  1  0
  4  5  1  0
  4 14  1  0
  5  6  2  0
  5 12  1  0
  6  7  1  0
  6  8  1  0
  8  9  2  0
  8 10  1  0
  8 11  2  0
 10 26  1  0
 10 27  1  0
 10 28  1  0
 12 13  1  0
 12 17  1  0
 12 29  1  1
 13 14  1  0
 13 15  1  0
 13 16  1  0
 14 30  1  0
 14 31  1  0
 17 32  1  0
 18 19  1  0
 18 33  1  0
 19 20  2  0
 19 24  1  0
 20 21  1  0
 20 34  1  0
 21 22  2  0
 21 23  1  0
 22 35  1  0
 24 25  3  0
M  END
>  <Protein/Binding/ITC_Mean_KD_uM_HIF2a_240-350_human;(Num)>  (35) 
0.95999999999999996

>  <atom.dprop.PartialCharge>  (35) 
0.124895975 -0.20352152 0.10302239 -0.1950494 0.00068752095 -0.477682 0.2878521 1.4595999 -0.6524398 -0.36993092 -0.6524398 0.17478235 0.4042378 -0.007920805 -0.2276943 -0.2276943 -0.5669013 -0.11442585 0.031108383 -0.14288718 0.1417144 -0.17531396 -0.12803717 0.23036522 -0.34102693 0.11755893 0.11755893 0.11755893 0.09398188 0.080531865 0.080531865 0.41616696 0.16432437 0.16831546 0.16816986

>  <experimental dG reference units>  (35) 
uM

>  <experimental dG reference field>  (35) 
Protein/Binding/ITC_Mean_KD_uM_HIF2a_240-350_human;(Num)

>  <kJ/mol experimental dG>  (35) 
-34.5625897092363

>  <kcal/mol experimental dG>  (35) 
-8.260657196280185

$$$$
19d-bindingpose2
     RDKit          3D

 35 37  0  0  0  0  0  0  0  0999 V2000
   13.7141    0.2350    8.9994 O   0  0  0  0  0  0  0  0  0  0  0  0
   12.5040   -0.1138    9.4114 C   0  0  0  0  0  0  0  0  0  0  0  0
   10.1929   -0.4866    8.8668 C   0  0  0  0  0  0  0  0  0  0  0  0
   10.3523   -0.0568   10.1604 C   0  0  0  0  0  0  0  0  0  0  0  0
   11.6954    0.0977   10.5040 C   0  0  0  0  0  0  0  0  0  0  0  0
    8.7600   -0.7266    7.9356 S   0  0  0  0  0  6  0  0  0  0  0  0
    8.1219    0.5892    7.7760 O   0  0  0  0  0  0  0  0  0  0  0  0
    9.1316   -1.5649    6.7843 O   0  0  0  0  0  0  0  0  0  0  0  0
    7.8878   -1.7136    9.1461 C   0  0  0  0  0  0  0  0  0  0  0  0
    9.4414    0.3623   11.2640 C   0  0  1  0  0  0  0  0  0  0  0  0
   10.4000    0.6843   12.4426 C   0  0  0  0  0  0  0  0  0  0  0  0
   11.8530    0.6033   11.9085 C   0  0  0  0  0  0  0  0  0  0  0  0
    8.7519    1.4886   10.7722 O   0  0  0  0  0  0  0  0  0  0  0  0
   11.6845   -0.8730    8.1227 S   0  0  0  0  0  0  0  0  0  0  0  0
   10.2068   -0.2485   13.3767 F   0  0  0  0  0  0  0  0  0  0  0  0
   10.1745    1.8735   12.9991 F   0  0  0  0  0  0  0  0  0  0  0  0
   14.7459   -0.0719    9.7772 C   0  0  0  0  0  0  0  0  0  0  0  0
   14.9285   -1.3524   10.3448 C   0  0  0  0  0  0  0  0  0  0  0  0
   16.0075   -1.5003   11.2165 C   0  0  0  0  0  0  0  0  0  0  0  0
   16.7446   -0.4067   11.5606 C   0  0  0  0  0  0  0  0  0  0  0  0
   16.5842    0.7808   10.9307 C   0  0  0  0  0  0  0  0  0  0  0  0
   15.6271    0.9815    9.9720 C   0  0  0  0  0  0  0  0  0  0  0  0
   17.4516    2.0115   11.5655 Cl  0  0  0  0  0  0  0  0  0  0  0  0
   16.5130   -2.6510   11.8597 C   0  0  0  0  0  0  0  0  0  0  0  0
   16.9828   -3.5336   12.3932 N   0  0  0  0  0  0  0  0  0  0  0  0
    6.9838   -2.1583    8.7676 H   0  0  0  0  0  0  0  0  0  0  0  0
    8.5682   -2.5045    9.4770 H   0  0  0  0  0  0  0  0  0  0  0  0
    7.6145   -1.0811    9.9729 H   0  0  0  0  0  0  0  0  0  0  0  0
    8.7398   -0.4130   11.5737 H   0  0  0  0  0  0  0  0  0  0  0  0
   12.4617   -0.0534   12.5231 H   0  0  0  0  0  0  0  0  0  0  0  0
   12.3128    1.5896   11.9138 H   0  0  0  0  0  0  0  0  0  0  0  0
    8.2572    1.8876   11.4799 H   0  0  0  0  0  0  0  0  0  0  0  0
   14.2558   -2.1554   10.1012 H   0  0  0  0  0  0  0  0  0  0  0  0
   17.3831   -0.3970   12.3712 H   0  0  0  0  0  0  0  0  0  0  0  0
   15.4484    1.9723    9.5740 H   0  0  0  0  0  0  0  0  0  0  0  0
  1  2  1  0
  1 17  1  0
  2  5  2  0
  2 14  1  0
  3  4  2  0
  3  6  1  0
  3 14  1  0
  4  5  1  0
  4 10  1  0
  5 12  1  0
  6  7  2  0
  6  8  2  0
  6  9  1  0
  9 26  1  0
  9 27  1  0
  9 28  1  0
 10 11  1  0
 10 13  1  0
 10 29  1  1
 11 12  1  0
 11 15  1  0
 11 16  1  0
 12 30  1  0
 12 31  1  0
 13 32  1  0
 17 18  2  0
 17 22  1  0
 18 19  1  0
 18 33  1  0
 19 20  2  0
 19 24  1  0
 20 21  1  0
 20 34  1  0
 21 22  2  0
 21 23  1  0
 22 35  1  0
 24 25  3  0
M  END
>  <Protein/Binding/ITC_Mean_KD_uM_HIF2a_240-350_human;(Num)>  (36) 
1.7

>  <atom.dprop.PartialCharge>  (36) 
-0.20103581 0.10031378 -0.47757623 0.0007932596 -0.19530176 1.4597055 -0.65233403 -0.65233403 -0.36982515 0.17488807 0.40434355 -0.007815074 -0.5667956 0.28801462 -0.22758855 -0.22758855 0.10375641 -0.09615318 0.007874079 -0.09943855 0.02280144 -0.12417124 -0.073728144 0.23459855 -0.34532082 0.117664665 0.117664665 0.117664665 0.09408762 0.080637604 0.080637604 0.4162727 0.16472083 0.16573876 0.16482775

>  <experimental dG reference units>  (36) 
uM

>  <experimental dG reference field>  (36) 
Protein/Binding/ITC_Mean_KD_uM_HIF2a_240-350_human;(Num)

>  <kJ/mol experimental dG>  (36) 
-33.13719086704654

>  <kcal/mol experimental dG>  (36) 
-7.919978696712844

$$$$
19d-bindingpose1
     RDKit          3D

 35 37  0  0  0  0  0  0  0  0999 V2000
   13.7141    0.2350    8.9994 O   0  0  0  0  0  0  0  0  0  0  0  0
   12.5040   -0.1138    9.4114 C   0  0  0  0  0  0  0  0  0  0  0  0
   10.1929   -0.4866    8.8668 C   0  0  0  0  0  0  0  0  0  0  0  0
   10.3523   -0.0568   10.1604 C   0  0  0  0  0  0  0  0  0  0  0  0
   11.6954    0.0977   10.5040 C   0  0  0  0  0  0  0  0  0  0  0  0
    8.7600   -0.7266    7.9356 S   0  0  0  0  0  6  0  0  0  0  0  0
    8.1219    0.5892    7.7760 O   0  0  0  0  0  0  0  0  0  0  0  0
    9.1316   -1.5649    6.7843 O   0  0  0  0  0  0  0  0  0  0  0  0
    7.8878   -1.7136    9.1461 C   0  0  0  0  0  0  0  0  0  0  0  0
    9.4414    0.3623   11.2640 C   0  0  1  0  0  0  0  0  0  0  0  0
   10.4000    0.6843   12.4426 C   0  0  0  0  0  0  0  0  0  0  0  0
   11.8530    0.6033   11.9085 C   0  0  0  0  0  0  0  0  0  0  0  0
    8.7519    1.4886   10.7722 O   0  0  0  0  0  0  0  0  0  0  0  0
   11.6845   -0.8730    8.1227 S   0  0  0  0  0  0  0  0  0  0  0  0
   10.2068   -0.2485   13.3767 F   0  0  0  0  0  0  0  0  0  0  0  0
   10.1745    1.8735   12.9991 F   0  0  0  0  0  0  0  0  0  0  0  0
   14.7459   -0.0719    9.7772 C   0  0  0  0  0  0  0  0  0  0  0  0
   15.7137    0.8740   10.1819 C   0  0  0  0  0  0  0  0  0  0  0  0
   16.7920    0.3864   10.9204 C   0  0  0  0  0  0  0  0  0  0  0  0
   16.9187   -0.9570   11.1125 C   0  0  0  0  0  0  0  0  0  0  0  0
   15.9272   -1.8157   10.7775 C   0  0  0  0  0  0  0  0  0  0  0  0
   14.7771   -1.4055   10.1576 C   0  0  0  0  0  0  0  0  0  0  0  0
   16.3068   -3.3957   10.9501 Cl  0  0  0  0  0  0  0  0  0  0  0  0
   17.8560    1.0710   11.5470 C   0  0  0  0  0  0  0  0  0  0  0  0
   18.7264    1.5545   12.0884 N   0  0  0  0  0  0  0  0  0  0  0  0
    6.9838   -2.1583    8.7676 H   0  0  0  0  0  0  0  0  0  0  0  0
    8.5682   -2.5045    9.4770 H   0  0  0  0  0  0  0  0  0  0  0  0
    7.6145   -1.0811    9.9729 H   0  0  0  0  0  0  0  0  0  0  0  0
    8.7398   -0.4130   11.5737 H   0  0  0  0  0  0  0  0  0  0  0  0
   12.4617   -0.0534   12.5231 H   0  0  0  0  0  0  0  0  0  0  0  0
   12.3128    1.5896   11.9138 H   0  0  0  0  0  0  0  0  0  0  0  0
    8.2572    1.8876   11.4799 H   0  0  0  0  0  0  0  0  0  0  0  0
   15.6016    1.9113    9.9208 H   0  0  0  0  0  0  0  0  0  0  0  0
   17.7990   -1.3951   11.4257 H   0  0  0  0  0  0  0  0  0  0  0  0
   14.0586   -2.1312    9.7982 H   0  0  0  0  0  0  0  0  0  0  0  0
  1  2  1  0
  1 17  1  0
  2  5  2  0
  2 14  1  0
  3  4  2  0
  3  6  1  0
  3 14  1  0
  4  5  1  0
  4 10  1  0
  5 12  1  0
  6  7  2  0
  6  8  2  0
  6  9  1  0
  9 26  1  0
  9 27  1  0
  9 28  1  0
 10 11  1  0
 10 13  1  0
 10 29  1  1
 11 12  1  0
 11 15  1  0
 11 16  1  0
 12 30  1  0
 12 31  1  0
 13 32  1  0
 17 18  2  0
 17 22  1  0
 18 19  1  0
 18 33  1  0
 19 20  2  0
 19 24  1  0
 20 21  1  0
 20 34  1  0
 21 22  2  0
 21 23  1  0
 22 35  1  0
 24 25  3  0
M  END
>  <Protein/Binding/ITC_Mean_KD_uM_HIF2a_240-350_human;(Num)>  (37) 
1.7

>  <atom.dprop.PartialCharge>  (37) 
-0.20103581 0.10031378 -0.47757623 0.0007932596 -0.19530176 1.4597055 -0.65233403 -0.65233403 -0.36982515 0.17488807 0.40434355 -0.007815074 -0.5667956 0.28801462 -0.22758855 -0.22758855 0.10375641 -0.09615318 0.007874079 -0.09943855 0.02280144 -0.12417124 -0.073728144 0.23459855 -0.34532082 0.117664665 0.117664665 0.117664665 0.09408762 0.080637604 0.080637604 0.4162727 0.16472083 0.16573876 0.16482775

>  <experimental dG reference units>  (37) 
uM

>  <experimental dG reference field>  (37) 
Protein/Binding/ITC_Mean_KD_uM_HIF2a_240-350_human;(Num)

>  <kJ/mol experimental dG>  (37) 
-33.13719086704654

>  <kcal/mol experimental dG>  (37) 
-7.919978696712844

$$$$
19b
     RDKit          3D

 34 36  0  0  0  0  0  0  0  0999 V2000
   14.0062    0.5464    9.9710 O   0  0  0  0  0  0  0  0  0  0  0  0
   12.7797    0.0355   10.0488 C   0  0  0  0  0  0  0  0  0  0  0  0
   10.6015   -0.3740    9.0410 C   0  0  0  0  0  0  0  0  0  0  0  0
   10.5287    0.0221   10.3505 C   0  0  0  0  0  0  0  0  0  0  0  0
   11.7752    0.1323   10.9724 C   0  0  0  0  0  0  0  0  0  0  0  0
    9.3038   -0.6405    7.8940 S   0  0  0  0  0  6  0  0  0  0  0  0
    8.6124    0.6423    7.6989 O   0  0  0  0  0  0  0  0  0  0  0  0
    9.9268   -1.3415    6.7694 O   0  0  0  0  0  0  0  0  0  0  0  0
    8.2275   -1.8234    8.7680 C   0  0  0  0  0  0  0  0  0  0  0  0
    9.4230    0.4412   11.2470 C   0  0  1  0  0  0  0  0  0  0  0  0
   10.1181    0.5962   12.6290 C   0  0  0  0  0  0  0  0  0  0  0  0
   11.6600    0.5532   12.4008 C   0  0  0  0  0  0  0  0  0  0  0  0
    8.9833    1.6803   10.7291 O   0  0  0  0  0  0  0  0  0  0  0  0
   12.2404   -0.5734    8.5239 S   0  0  0  0  0  0  0  0  0  0  0  0
    9.7364   -0.4391   13.3829 F   0  0  0  0  0  0  0  0  0  0  0  0
    9.7680    1.7235   13.2511 F   0  0  0  0  0  0  0  0  0  0  0  0
   15.0680   -0.1177   10.4908 C   0  0  0  0  0  0  0  0  0  0  0  0
   16.1909    0.6989   10.7005 C   0  0  0  0  0  0  0  0  0  0  0  0
   17.3099    0.1916   11.3523 C   0  0  0  0  0  0  0  0  0  0  0  0
   17.4071   -1.2087   11.5721 C   0  0  0  0  0  0  0  0  0  0  0  0
   16.2802   -2.0357   11.4012 C   0  0  0  0  0  0  0  0  0  0  0  0
   15.0867   -1.4943   10.8577 C   0  0  0  0  0  0  0  0  0  0  0  0
   18.1831    1.0872   11.8832 F   0  0  0  0  0  0  0  0  0  0  0  0
   16.3490   -3.3122   11.8486 F   0  0  0  0  0  0  0  0  0  0  0  0
    7.5148   -2.2448    8.0636 H   0  0  0  0  0  0  0  0  0  0  0  0
    8.8458   -2.6244    9.1735 H   0  0  0  0  0  0  0  0  0  0  0  0
    7.6914   -1.3187    9.5672 H   0  0  0  0  0  0  0  0  0  0  0  0
    8.5973   -0.2678   11.2847 H   0  0  0  0  0  0  0  0  0  0  0  0
   12.1090    1.5357   12.5452 H   0  0  0  0  0  0  0  0  0  0  0  0
   12.1573   -0.1414   13.0784 H   0  0  0  0  0  0  0  0  0  0  0  0
    9.6952    2.2994   10.7842 H   0  0  0  0  0  0  0  0  0  0  0  0
   16.1708    1.7518   10.4602 H   0  0  0  0  0  0  0  0  0  0  0  0
   18.3086   -1.6437   11.9721 H   0  0  0  0  0  0  0  0  0  0  0  0
   14.2161   -2.1206   10.7348 H   0  0  0  0  0  0  0  0  0  0  0  0
  1  2  1  0
  1 17  1  0
  2  5  2  0
  2 14  1  0
  3  4  2  0
  3  6  1  0
  3 14  1  0
  4  5  1  0
  4 10  1  0
  5 12  1  0
  6  7  2  0
  6  8  2  0
  6  9  1  0
  9 25  1  0
  9 26  1  0
  9 27  1  0
 10 11  1  0
 10 13  1  0
 10 28  1  1
 11 12  1  0
 11 15  1  0
 11 16  1  0
 12 29  1  0
 12 30  1  0
 13 31  1  0
 17 18  2  0
 17 22  1  0
 18 19  1  0
 18 32  1  0
 19 20  2  0
 19 23  1  0
 20 21  1  0
 20 33  1  0
 21 22  2  0
 21 24  1  0
 22 34  1  0
M  END
>  <Protein/Binding/ITC_Mean_KD_uM_HIF2a_240-350_human;(Num)>  (38) 
0.88

>  <atom.dprop.PartialCharge>  (38) 
-0.2081464 0.1053849 -0.47773367 0.0006358512 -0.19456972 1.4595482 -0.65249145 -0.65249145 -0.3699826 0.17473069 0.40418616 -0.007972471 -0.566953 0.28675374 -0.227746 -0.227746 0.14030293 -0.18862304 0.1668933 -0.20996986 0.1668933 -0.18862304 -0.13036072 -0.13036072 0.11750725 0.11750725 0.11750725 0.09393021 0.08048019 0.08048019 0.41611528 0.16749409 0.16992451 0.16749409

>  <experimental dG reference units>  (38) 
uM

>  <experimental dG reference field>  (38) 
Protein/Binding/ITC_Mean_KD_uM_HIF2a_240-350_human;(Num)

>  <kJ/mol experimental dG>  (38) 
-34.77962683010051

>  <kcal/mol experimental dG>  (38) 
-8.312530313121536

$$$$
