CHEMBL3265027
     RDKit          3D

 39 43  0  0  0  0  0  0  0  0999 V2000
    1.6124   -1.3917   15.3063 N   0  0  0  0  0  0  0  0  0  0  0  0
    0.2249   -1.5978   15.0814 C   0  0  0  0  0  0  0  0  0  0  0  0
   -0.5442   -0.8150   14.1982 C   0  0  0  0  0  0  0  0  0  0  0  0
   -1.9142   -1.0738   14.0573 C   0  0  0  0  0  0  0  0  0  0  0  0
   -2.5121   -2.0998   14.7912 C   0  0  0  0  0  0  0  0  0  0  0  0
   -1.7536   -2.8696   15.6610 C   0  0  0  0  0  0  0  0  0  0  0  0
   -0.3955   -2.6216   15.8033 C   0  0  0  0  0  0  0  0  0  0  0  0
    2.5315   -0.4491   14.7651 C   0  0  0  0  0  0  0  0  0  0  0  0
    2.1583    0.3961   13.7551 N   0  0  0  0  0  0  0  0  0  0  0  0
    3.0948    1.2419   13.2245 C   0  0  0  0  0  0  0  0  0  0  0  0
    4.4047    1.2813   13.6954 C   0  0  0  0  0  0  0  0  0  0  0  0
    4.7386    0.4915   14.7531 N   0  0  0  0  0  0  0  0  0  0  0  0
    5.8960    0.3859   15.4809 C   0  0  0  0  0  0  0  0  0  0  0  0
    5.5970   -0.5411   16.5116 C   0  0  0  0  0  0  0  0  0  0  0  0
    4.3870   -1.0586   16.3541 N   0  0  0  0  0  0  0  0  0  0  0  0
    3.8354   -0.3959   15.3220 C   0  0  0  0  0  0  0  0  0  0  0  0
    2.6241    2.1558   12.1223 C   0  0  0  0  0  0  0  0  0  0  0  0
    3.5409    2.6448   11.1668 C   0  0  0  0  0  0  0  0  0  0  0  0
    3.1526    3.4655   10.1090 C   0  0  0  0  0  0  0  0  0  0  0  0
    1.8070    3.8204   10.0137 C   0  0  0  0  0  0  0  0  0  0  0  0
    0.9973    4.6040    9.1190 C   0  0  0  0  0  0  0  0  0  0  0  0
   -0.2435    4.6079    9.5202 N   0  0  0  0  0  0  0  0  0  0  0  0
   -0.3316    3.8816   10.6309 N   0  0  0  0  0  0  0  0  0  0  0  0
    0.8832    3.3484   10.9943 C   0  0  0  0  0  0  0  0  0  0  0  0
    1.2619    2.5173   12.0545 C   0  0  0  0  0  0  0  0  0  0  0  0
    2.0176   -2.0162   15.9915 H   0  0  0  0  0  0  0  0  0  0  0  0
   -0.1036   -0.0170   13.6342 H   0  0  0  0  0  0  0  0  0  0  0  0
   -2.5121   -0.4793   13.3847 H   0  0  0  0  0  0  0  0  0  0  0  0
   -3.5698   -2.2967   14.6864 H   0  0  0  0  0  0  0  0  0  0  0  0
   -2.2195   -3.6606   16.2340 H   0  0  0  0  0  0  0  0  0  0  0  0
    0.1884   -3.2203   16.4893 H   0  0  0  0  0  0  0  0  0  0  0  0
    5.1658    1.9496   13.3207 H   0  0  0  0  0  0  0  0  0  0  0  0
    6.7756    0.9786   15.2759 H   0  0  0  0  0  0  0  0  0  0  0  0
    6.2399   -0.8270   17.3309 H   0  0  0  0  0  0  0  0  0  0  0  0
    4.5780    2.3565   11.2387 H   0  0  0  0  0  0  0  0  0  0  0  0
    3.8751    3.8096    9.3796 H   0  0  0  0  0  0  0  0  0  0  0  0
    1.3042    5.1362    8.2332 H   0  0  0  0  0  0  0  0  0  0  0  0
   -1.2186    3.7731   11.1004 H   0  0  0  0  0  0  0  0  0  0  0  0
    0.5529    2.1690   12.7938 H   0  0  0  0  0  0  0  0  0  0  0  0
  1  2  1  0
  1  8  1  0
  1 26  1  0
  2  3  2  0
  2  7  1  0
  3  4  1  0
  3 27  1  0
  4  5  2  0
  4 28  1  0
  5  6  1  0
  5 29  1  0
  6  7  2  0
  6 30  1  0
  7 31  1  0
  8  9  2  0
  8 16  1  0
  9 10  1  0
 10 11  2  0
 10 17  1  0
 11 12  1  0
 11 32  1  0
 12 13  1  0
 12 16  1  0
 13 14  2  0
 13 33  1  0
 14 15  1  0
 14 34  1  0
 15 16  2  0
 17 18  2  0
 17 25  1  0
 18 19  1  0
 18 35  1  0
 19 20  2  0
 19 36  1  0
 20 21  1  0
 20 24  1  0
 21 22  2  0
 21 37  1  0
 22 23  1  0
 23 24  1  0
 23 38  1  0
 24 25  2  0
 25 39  1  0
M  END
>  <IC50[nM]>  (1) 
26.800000000000001

>  <atom.dprop.PartialCharge>  (1) 
-0.6977422 0.11442059 -0.1221243 -0.12299959 -0.12800664 -0.12299959 -0.1221243 0.6110182 -0.62088966 0.15627953 -0.11698884 -0.065027535 -0.28870684 0.32756287 -0.62485206 0.26633668 -0.041856818 -0.13227242 -0.05930848 -0.20944376 0.34975728 -0.40380958 -0.39914444 0.080666214 -0.117657065 0.44261575 0.13998851 0.13582887 0.13438416 0.13582887 0.13998851 0.1767637 0.1813026 0.051082738 0.13724256 0.13889943 0.05648677 0.4758956 0.14360473

>  <experimental dG reference units>  (1) 
nM

>  <experimental dG reference field>  (1) 
IC50[nM]

>  <kJ/mol experimental dG>  (1) 
-43.48871153589926

>  <kcal/mol experimental dG>  (1) 
-10.394051514316267

>  <AmberAM1BCCCache>  (1) 
gASVQAMAAAAAAABdlCiMFm51bXB5Ll9jb3JlLm11bHRpYXJyYXmUjAZzY2FsYXKUk5SMBW51bXB5lIwFZHR5cGWUk5SMAmY4lImIh5RSlChLA4wBPJROTk5K/////0r/////SwB0lGJDCJk/9cLOviDAlIaUUpRoA2gJQwg409Zp9TD5P5SGlFKUaANoCUMIBrufOUlQ+r+UhpRSlGgDaAlDCGs/EMxyCPW/lIaUUpRoA2gJQwgyr9Ve/Mj6v5SGlFKUaANoCUMIaz8QzHII9b+UhpRSlGgDaAlDCAa7nzlJUPq/lIaUUpRoA2gJQwhXPCxLr5kgQJSGlFKUaANoCUMIiVtUgaApIcCUhpRSlGgDaAlDCHMJlijoTBVAlIaUUpRoA2gJQwip8VJDeYUEwJSGlFKUaANoCUMIZZAwsASv3j+UhpRSlGgDaAlDCKr+/TO0AATAlIaUUpRoA2gJQwiFm6viGzWRv5SGlFKUaANoCUMIYMIq2EVoBsCUhpRSlGgDaAlDCPZUJ3GYjwDAlIaUUpRoA2gJQwg/ZTCINYbzv5SGlFKUaANoCUMICgmi3aoz97+UhpRSlGgDaAlDCMQQ9qYaCeq/lIaUUpRoA2gJQwh0eM6awToDwJSGlFKUaANoCUMI2YBbytaJEECUhpRSlGgDaAlDCA+fE6I0DRjAlIaUUpRoA2gJQwgju1yMmNbJv5SGlFKUaANoCUMIebcsTX9457+UhpRSlGgDaAlDCDfjgSHotfi/lIaUUpRoA2gJQwheHKaGyYsUQJSGlFKUaANoCUMI0STF6GMF+j+UhpRSlGgDaAlDCHU8WZ79E/k/lIaUUpRoA2gJQwh1PFme/RP5P5SGlFKUaANoCUMIdTxZnv0T+T+UhpRSlGgDaAlDCNEkxehjBfo/lIaUUpRoA2gJQwiQOJZ1A5gAQJSGlFKUaANoCUMIjx5AlI2hAUCUhpRSlGgDaAlDCOwgAsBpiQFAlIaUUpRoA2gJQwhX5xB3B3n8P5SGlFKUaANoCUMIKw0xM8r2+j+UhpRSlGgDaAlDCCTjFlYfauU/lIaUUpRoA2gJQwg+il/AOawNQJSGlFKUaANoCUMIoBY54jqW+j+UhpRSlGUu

$$$$
CHEMBL3265028
     RDKit          3D

 43 47  0  0  0  0  0  0  0  0999 V2000
   -1.9509    0.6794   12.3551 C   0  0  0  0  0  0  0  0  0  0  0  0
   -2.6175   -0.2972   13.1574 O   0  0  0  0  0  0  0  0  0  0  0  0
   -1.8696   -1.0545   14.0449 C   0  0  0  0  0  0  0  0  0  0  0  0
   -2.5006   -2.0822   14.7698 C   0  0  0  0  0  0  0  0  0  0  0  0
   -1.7540   -2.8524   15.6585 C   0  0  0  0  0  0  0  0  0  0  0  0
   -0.3950   -2.6038   15.8322 C   0  0  0  0  0  0  0  0  0  0  0  0
    0.2324   -1.5851   15.1260 C   0  0  0  0  0  0  0  0  0  0  0  0
    1.6168   -1.3648   15.3699 N   0  0  0  0  0  0  0  0  0  0  0  0
    2.5420   -0.4570   14.7968 C   0  0  0  0  0  0  0  0  0  0  0  0
    2.1720    0.3831   13.7786 N   0  0  0  0  0  0  0  0  0  0  0  0
    3.1103    1.2383   13.2419 C   0  0  0  0  0  0  0  0  0  0  0  0
    4.3968    1.2792   13.7037 C   0  0  0  0  0  0  0  0  0  0  0  0
    4.7381    0.4944   14.7692 N   0  0  0  0  0  0  0  0  0  0  0  0
    5.8928    0.3893   15.4752 C   0  0  0  0  0  0  0  0  0  0  0  0
    5.6110   -0.5494   16.5068 C   0  0  0  0  0  0  0  0  0  0  0  0
    4.4002   -1.0741   16.3612 N   0  0  0  0  0  0  0  0  0  0  0  0
    3.8444   -0.3918   15.3407 C   0  0  0  0  0  0  0  0  0  0  0  0
    2.6282    2.1384   12.1226 C   0  0  0  0  0  0  0  0  0  0  0  0
    3.5442    2.6282   11.1721 C   0  0  0  0  0  0  0  0  0  0  0  0
    3.1497    3.4552   10.1130 C   0  0  0  0  0  0  0  0  0  0  0  0
    1.8035    3.8107   10.0226 C   0  0  0  0  0  0  0  0  0  0  0  0
    0.9910    4.6054    9.1269 C   0  0  0  0  0  0  0  0  0  0  0  0
   -0.2498    4.6130    9.5297 N   0  0  0  0  0  0  0  0  0  0  0  0
   -0.3276    3.8827   10.6287 N   0  0  0  0  0  0  0  0  0  0  0  0
    0.8922    3.3455   10.9868 C   0  0  0  0  0  0  0  0  0  0  0  0
    1.2628    2.5119   12.0466 C   0  0  0  0  0  0  0  0  0  0  0  0
   -0.5121   -0.8124   14.2226 C   0  0  0  0  0  0  0  0  0  0  0  0
   -2.6470    1.2080   11.7073 H   0  0  0  0  0  0  0  0  0  0  0  0
   -1.2045    0.2004   11.7318 H   0  0  0  0  0  0  0  0  0  0  0  0
   -1.4794    1.4174   12.9913 H   0  0  0  0  0  0  0  0  0  0  0  0
   -3.5460   -2.2812   14.6470 H   0  0  0  0  0  0  0  0  0  0  0  0
   -2.2312   -3.6425   16.2160 H   0  0  0  0  0  0  0  0  0  0  0  0
    0.1711   -3.2085   16.5377 H   0  0  0  0  0  0  0  0  0  0  0  0
    1.9989   -1.9290   16.1054 H   0  0  0  0  0  0  0  0  0  0  0  0
    5.1566    1.9436   13.3074 H   0  0  0  0  0  0  0  0  0  0  0  0
    6.7779    0.9754   15.2698 H   0  0  0  0  0  0  0  0  0  0  0  0
    6.2564   -0.8382   17.2944 H   0  0  0  0  0  0  0  0  0  0  0  0
    4.5845    2.3474   11.2386 H   0  0  0  0  0  0  0  0  0  0  0  0
    3.8685    3.8054    9.3873 H   0  0  0  0  0  0  0  0  0  0  0  0
    1.3045    5.1360    8.2411 H   0  0  0  0  0  0  0  0  0  0  0  0
   -1.2156    3.7788   11.0960 H   0  0  0  0  0  0  0  0  0  0  0  0
    0.5640    2.1751   12.7727 H   0  0  0  0  0  0  0  0  0  0  0  0
   -0.0605   -0.0305   13.6582 H   0  0  0  0  0  0  0  0  0  0  0  0
  1  2  1  0
  1 28  1  0
  1 29  1  0
  1 30  1  0
  2  3  1  0
  3  4  2  0
  3 27  1  0
  4  5  1  0
  4 31  1  0
  5  6  2  0
  5 32  1  0
  6  7  1  0
  6 33  1  0
  7  8  1  0
  7 27  2  0
  8  9  1  0
  8 34  1  0
  9 10  2  0
  9 17  1  0
 10 11  1  0
 11 12  2  0
 11 18  1  0
 12 13  1  0
 12 35  1  0
 13 14  1  0
 13 17  1  0
 14 15  2  0
 14 36  1  0
 15 16  1  0
 15 37  1  0
 16 17  2  0
 18 19  2  0
 18 26  1  0
 19 20  1  0
 19 38  1  0
 20 21  2  0
 20 39  1  0
 21 22  1  0
 21 25  1  0
 22 23  2  0
 22 40  1  0
 23 24  1  0
 24 25  1  0
 24 41  1  0
 25 26  2  0
 26 42  1  0
 27 43  1  0
M  END
>  <IC50[nM]>  (2) 
8.5

>  <atom.dprop.PartialCharge>  (2) 
0.11689893 -0.32339904 0.13553181 -0.2226568 -0.08288906 -0.15681212 0.16212657 -0.6999367 0.6164149 -0.62094057 0.15612365 -0.11714474 -0.06518343 -0.28886276 0.327407 -0.62500805 0.26704487 -0.042012706 -0.13242832 -0.05946437 -0.20959966 0.34960142 -0.4039655 -0.39930037 0.08051033 -0.11781296 -0.15044087 0.044804007 0.044804007 0.044804007 0.14142367 0.13052659 0.14253071 0.44160455 0.1766078 0.1811467 0.05092684 0.13708666 0.13874352 0.056330875 0.47573972 0.14344881 0.15566993

>  <experimental dG reference units>  (2) 
nM

>  <experimental dG reference field>  (2) 
IC50[nM]

>  <kJ/mol experimental dG>  (2) 
-46.353066611634226

>  <kcal/mol experimental dG>  (2) 
-11.078648807751966

>  <AmberAM1BCCCache>  (2) 
gASVjAMAAAAAAABdlCiMFm51bXB5Ll9jb3JlLm11bHRpYXJyYXmUjAZzY2FsYXKUk5SMBW51bXB5lIwFZHR5cGWUk5SMAmY4lImIh5RSlChLA4wBPJROTk5K/////0r/////SwB0lGJDCHGOcu/TovU/lIaUUpRoA2gJQwjMbEs1EgMPwJSGlFKUaANoCUMISHOEkbLN+j+UhpRSlGgDaAlDCCdCzFXPdQTAlIaUUpRoA2gJQwj4UK4cL+frv5SGlFKUaANoCUMIuaAcLDawAMCUhpRSlGgDaAlDCEL2qGnWFgBAlIaUUpRoA2gJQwhiRSIrlcogwJSGlFKUaANoCUMIXzUezfqZIECUhpRSlGgDaAlDCHXlFDYoCyHAlIaUUpRoA2gJQwjg/TtYWzUVQJSGlFKUaANoCUMIoRTRvt87BMCUhpRSlGgDaAlDCFLEf0xW990/lIaUUpRoA2gJQwiKGjYshv8DwJSGlFKUaANoCUMIWIu5/heekL+UhpRSlGgDaAlDCJ3gJPzzTgbAlIaUUpRoA2gJQwiQdePAIl4AwJSGlFKUaANoCUMI/pygeNmD87+UhpRSlGgDaAlDCMpAEs5OMfe/lIaUUpRoA2gJQwhCgNaHYgTqv5SGlFKUaANoCUMIU5QGk5M5A8CUhpRSlGgDaAlDCLpxXrh/lhBAlIaUUpRoA2gJQwj+rC+enQwYwJSGlFKUaANoCUMIHnneD7jDyb+UhpRSlGgDaAlDCPcmDS7Hc+e/lIaUUpRoA2gJQwj1GvIRjLP4v5SGlFKUaANoCUMIuaAcLDawAMCUhpRSlGgDaAlDCD9q0TJQvuA/lIaUUpRoA2gJQwg/atEyUL7gP5SGlFKUaANoCUMIP2rRMlC+4D+UhpRSlGgDaAlDCBLtVPi/B/o/lIaUUpRoA2gJQwi2BOmtWRb5P5SGlFKUaANoCUMIWOjQoAc4+j+UhpRSlGgDaAlDCOIK50iWsBRAlIaUUpRoA2gJQwixHF59MZkAQJSGlFKUaANoCUMIrwIInLuiAUCUhpRSlGgDaAlDCA0FyseXigFAlIaUUpRoA2gJQwiZr6CGY3v8P5SGlFKUaANoCUMIbNXAQib5+j+UhpRSlGgDaAlDCKVzNnXXbuU/lIaUUpRoA2gJQwhdbifIZ60NQJSGlFKUaANoCUMI4d7I8ZaY+j+UhpRSlGgDaAlDCPSXDNHJbP0/lIaUUpRlLg==

$$$$
CHEMBL3265020
     RDKit          3D

 48 52  0  0  0  0  0  0  0  0999 V2000
   -4.2567   -3.1041   13.5694 C   0  0  0  0  0  0  0  0  0  0  0  0
   -3.8737   -2.3598   14.7157 O   0  0  0  0  0  0  0  0  0  0  0  0
   -2.5259   -2.1106   14.8172 C   0  0  0  0  0  0  0  0  0  0  0  0
   -1.7455   -2.8698   15.6821 C   0  0  0  0  0  0  0  0  0  0  0  0
   -0.3904   -2.6103   15.8138 C   0  0  0  0  0  0  0  0  0  0  0  0
    0.2204   -1.5845   15.0865 C   0  0  0  0  0  0  0  0  0  0  0  0
    1.6043   -1.3599   15.3203 N   0  0  0  0  0  0  0  0  0  0  0  0
    2.5377   -0.4463   14.7588 C   0  0  0  0  0  0  0  0  0  0  0  0
    2.1842    0.3709   13.7215 N   0  0  0  0  0  0  0  0  0  0  0  0
    3.1172    1.2388   13.2173 C   0  0  0  0  0  0  0  0  0  0  0  0
    4.4204    1.2848   13.7037 C   0  0  0  0  0  0  0  0  0  0  0  0
    4.7469    0.4890   14.7614 N   0  0  0  0  0  0  0  0  0  0  0  0
    5.8976    0.3763   15.4868 C   0  0  0  0  0  0  0  0  0  0  0  0
    5.5864   -0.5217   16.5304 C   0  0  0  0  0  0  0  0  0  0  0  0
    4.3754   -1.0422   16.3738 N   0  0  0  0  0  0  0  0  0  0  0  0
    3.8369   -0.3917   15.3265 C   0  0  0  0  0  0  0  0  0  0  0  0
    2.6436    2.1633   12.1173 C   0  0  0  0  0  0  0  0  0  0  0  0
    3.5480    2.6409   11.1599 C   0  0  0  0  0  0  0  0  0  0  0  0
    3.1566    3.4683   10.0981 C   0  0  0  0  0  0  0  0  0  0  0  0
    1.8094    3.8079   10.0262 C   0  0  0  0  0  0  0  0  0  0  0  0
    1.1129    4.5678    9.1158 N   0  0  0  0  0  0  0  0  0  0  0  0
   -0.1959    4.6369    9.4439 C   0  0  0  0  0  0  0  0  0  0  0  0
   -0.4233    3.9255   10.6079 C   0  0  0  0  0  0  0  0  0  0  0  0
    0.8581    3.3610   11.0052 C   0  0  0  0  0  0  0  0  0  0  0  0
    1.2923    2.5453   12.0556 C   0  0  0  0  0  0  0  0  0  0  0  0
   -0.5553   -0.8190   14.1924 C   0  0  0  0  0  0  0  0  0  0  0  0
   -1.9451   -1.0886   14.0616 C   0  0  0  0  0  0  0  0  0  0  0  0
   -2.7542   -0.3572   13.2046 O   0  0  0  0  0  0  0  0  0  0  0  0
   -2.2337    0.6443   12.3523 C   0  0  0  0  0  0  0  0  0  0  0  0
   -5.3357   -3.2522   13.5867 H   0  0  0  0  0  0  0  0  0  0  0  0
   -3.7894   -4.0896   13.5592 H   0  0  0  0  0  0  0  0  0  0  0  0
   -4.0126   -2.5803   12.6439 H   0  0  0  0  0  0  0  0  0  0  0  0
   -2.1924   -3.6626   16.2629 H   0  0  0  0  0  0  0  0  0  0  0  0
    0.1988   -3.2075   16.4976 H   0  0  0  0  0  0  0  0  0  0  0  0
    1.9903   -1.9328   16.0524 H   0  0  0  0  0  0  0  0  0  0  0  0
    5.1821    1.9636   13.3436 H   0  0  0  0  0  0  0  0  0  0  0  0
    6.7861    0.9459   15.2758 H   0  0  0  0  0  0  0  0  0  0  0  0
    6.2270   -0.7893   17.3529 H   0  0  0  0  0  0  0  0  0  0  0  0
    4.5880    2.3439   11.2255 H   0  0  0  0  0  0  0  0  0  0  0  0
    3.8575    3.8116    9.3742 H   0  0  0  0  0  0  0  0  0  0  0  0
    1.4893    5.0309    8.2959 H   0  0  0  0  0  0  0  0  0  0  0  0
   -0.8811    5.2047    8.8100 H   0  0  0  0  0  0  0  0  0  0  0  0
   -1.3687    3.8093   11.1106 H   0  0  0  0  0  0  0  0  0  0  0  0
    0.6011    2.2181   12.8040 H   0  0  0  0  0  0  0  0  0  0  0  0
   -0.1076   -0.0335   13.6255 H   0  0  0  0  0  0  0  0  0  0  0  0
   -3.0510    1.0731   11.7700 H   0  0  0  0  0  0  0  0  0  0  0  0
   -1.5106    0.2345   11.6499 H   0  0  0  0  0  0  0  0  0  0  0  0
   -1.7825    1.4496   12.9275 H   0  0  0  0  0  0  0  0  0  0  0  0
  1  2  1  0
  1 30  1  0
  1 31  1  0
  1 32  1  0
  2  3  1  0
  3  4  2  0
  3 27  1  0
  4  5  1  0
  4 33  1  0
  5  6  2  0
  5 34  1  0
  6  7  1  0
  6 26  1  0
  7  8  1  0
  7 35  1  0
  8  9  2  0
  8 16  1  0
  9 10  1  0
 10 11  2  0
 10 17  1  0
 11 12  1  0
 11 36  1  0
 12 13  1  0
 12 16  1  0
 13 14  2  0
 13 37  1  0
 14 15  1  0
 14 38  1  0
 15 16  2  0
 17 18  2  0
 17 25  1  0
 18 19  1  0
 18 39  1  0
 19 20  2  0
 19 40  1  0
 20 21  1  0
 20 24  1  0
 21 22  1  0
 21 41  1  0
 22 23  2  0
 22 42  1  0
 23 24  1  0
 23 43  1  0
 24 25  2  0
 25 44  1  0
 26 27  2  0
 26 45  1  0
 27 28  1  0
 28 29  1  0
 29 46  1  0
 29 47  1  0
 29 48  1  0
M  END
>  <IC50[nM]>  (3) 
8.5999999999999996

>  <atom.dprop.PartialCharge>  (3) 
0.11115262 -0.32586452 0.08295323 -0.1461179 -0.11759037 0.12657262 -0.6984134 0.6148086 -0.6241627 0.16622376 -0.123883896 -0.06450799 -0.28986287 0.32640713 -0.6260084 0.26604488 -0.08964701 -0.08876951 -0.14341615 0.084221035 -0.5766976 0.0044423714 -0.18263265 -0.096510306 -0.04830815 -0.1251455 0.08139962 -0.33239025 0.11632183 0.043778118 0.043778118 0.043778118 0.14268656 0.14304556 0.44008937 0.17605226 0.18014663 0.049926817 0.13549751 0.13491946 0.45440155 0.16457647 0.15747702 0.13806635 0.14820705 0.040984847 0.040984847 0.040984847

>  <experimental dG reference units>  (3) 
nM

>  <experimental dG reference field>  (3) 
IC50[nM]

>  <kJ/mol experimental dG>  (3) 
-46.3238925555103

>  <kcal/mol experimental dG>  (3) 
-11.071676040991944

>  <AmberAM1BCCCache>  (3) 
gASV6wMAAAAAAABdlCiMFm51bXB5Ll9jb3JlLm11bHRpYXJyYXmUjAZzY2FsYXKUk5SMBW51bXB5lIwFZHR5cGWUk5SMAmY4lImIh5RSlChLA4wBPJROTk5K/////0r/////SwB0lGJDCKK0p6Fwc/U/lIaUUpRoA2gJQwiz2TDcwxoPwJSGlFKUaANoCUMI2du1wU8U6j+UhpRSlGgDaAlDCOlmRB5Vi/6/lIaUUpRoA2gJQwhpDFEVifH3v5SGlFKUaANoCUMIrfVH7tnw9j+UhpRSlGgDaAlDCFelX+w5oCDAlIaUUpRoA2gJQwjrWzaE84EgQJSGlFKUaANoCUMIJD0rXko1IcCUhpRSlGgDaAlDCD0sko0ePxZAlIaUUpRoA2gJQwi0W5apztUFwJSGlFKUaANoCUMI4+JpEl+h4T+UhpRSlGgDaAlDCPx9EyTHdwTAlIaUUpRoA2gJQwjm0LbXX02qv5SGlFKUaANoCUMIskFAyFjfBsCUhpRSlGgDaAlDCALZwLhj1gDAlIaUUpRoA2gJQwiJE2dAjosAwJSGlFKUaANoCUMIWoe5+EEK87+UhpRSlGgDaAlDCKefdDj5R/y/lIaUUpRoA2gJQwgDjtfCHcncv5SGlFKUaANoCUMIDRphBc1TAsCUhpRSlGgDaAlDCKf62DNTkfS/lIaUUpRoA2gJQwhkpH+e3+QAwJSGlFKUaANoCUMIL0IqrLjB87+UhpRSlGgDaAlDCKcQG4EDntm/lIaUUpRoA2gJQwj0AklmGFL4v5SGlFKUaANoCUMIs0NKkjvU8z+UhpRSlGgDaAlDCPfUrIQLSw/AlIaUUpRoA2gJQwgUigOO9SX3P5SGlFKUaANoCUMI40fIp9if4D+UhpRSlGgDaAlDCONHyKfYn+A/lIaUUpRoA2gJQwjjR8in2J/gP5SGlFKUaANoCUMIzgmC++s4+j+UhpRSlGgDaAlDCFcAekx7mfo/lIaUUpRoA2gJQwgpWfjMdXQUQJSGlFKUaANoCUMIJrI6AlxpAECUhpRSlGgDaAlDCCWY5CDmcgFAlIaUUpRoA2gJQwjfnGh4nkIBQJSGlFKUaANoCUMIXDQmD2eG+D+UhpRSlGgDaAlDCHIhFrGFR/k/lIaUUpRoA2gJQwjuJKCxnCsMQJSGlFKUaANoCUMIIoqVwHpQ/z+UhpRSlGgDaAlDCIGmrc3MLv4/lIaUUpRoA2gJQwhUzM2Jj6z8P5SGlFKUaANoCUMIO6sxJYX+/T+UhpRSlGgDaAlDCG4+wPhnAOE/lIaUUpRoA2gJQwhuPsD4ZwDhP5SGlFKUaANoCUMIbj7A+GcA4T+UhpRSlGUu

$$$$
CHEMBL3265023
     RDKit          3D

 50 54  0  0  0  0  0  0  0  0999 V2000
   -4.2567   -3.1059   13.5673 C   0  0  0  0  0  0  0  0  0  0  0  0
   -3.8729   -2.3613   14.7130 O   0  0  0  0  0  0  0  0  0  0  0  0
   -2.5249   -2.1099   14.8153 C   0  0  0  0  0  0  0  0  0  0  0  0
   -1.7517   -2.8690   15.6822 C   0  0  0  0  0  0  0  0  0  0  0  0
   -0.3919   -2.6091   15.8186 C   0  0  0  0  0  0  0  0  0  0  0  0
    0.2189   -1.5847   15.0927 C   0  0  0  0  0  0  0  0  0  0  0  0
    1.6018   -1.3585   15.3330 N   0  0  0  0  0  0  0  0  0  0  0  0
    2.5269   -0.4362   14.7717 C   0  0  0  0  0  0  0  0  0  0  0  0
    2.1589    0.3947   13.7415 N   0  0  0  0  0  0  0  0  0  0  0  0
    3.1051    1.2383   13.2191 C   0  0  0  0  0  0  0  0  0  0  0  0
    4.4090    1.2795   13.7014 C   0  0  0  0  0  0  0  0  0  0  0  0
    4.7388    0.4912   14.7576 N   0  0  0  0  0  0  0  0  0  0  0  0
    5.8975    0.3852   15.4842 C   0  0  0  0  0  0  0  0  0  0  0  0
    5.5969   -0.5378   16.5183 C   0  0  0  0  0  0  0  0  0  0  0  0
    4.3825   -1.0459   16.3661 N   0  0  0  0  0  0  0  0  0  0  0  0
    3.8333   -0.3893   15.3272 C   0  0  0  0  0  0  0  0  0  0  0  0
    2.6571    2.1471   12.1112 C   0  0  0  0  0  0  0  0  0  0  0  0
    3.5899    2.6392   11.1753 C   0  0  0  0  0  0  0  0  0  0  0  0
    3.2345    3.5009   10.1325 C   0  0  0  0  0  0  0  0  0  0  0  0
    1.8924    3.8376   10.0551 C   0  0  0  0  0  0  0  0  0  0  0  0
    0.9171    3.3423   10.9725 C   0  0  0  0  0  0  0  0  0  0  0  0
   -0.3038    3.9315   10.5288 C   0  0  0  0  0  0  0  0  0  0  0  0
   -0.0986    4.6050    9.4408 N   0  0  0  0  0  0  0  0  0  0  0  0
    1.1962    4.6448    9.1980 N   0  0  0  0  0  0  0  0  0  0  0  0
    1.7045    5.4754    8.0961 C   0  0  0  0  0  0  0  0  0  0  0  0
    1.3025    2.4943   12.0076 C   0  0  0  0  0  0  0  0  0  0  0  0
   -0.5544   -0.8156   14.1936 C   0  0  0  0  0  0  0  0  0  0  0  0
   -1.9395   -1.0837   14.0623 C   0  0  0  0  0  0  0  0  0  0  0  0
   -2.7429   -0.3421   13.2117 O   0  0  0  0  0  0  0  0  0  0  0  0
   -2.2131    0.6368   12.3357 C   0  0  0  0  0  0  0  0  0  0  0  0
   -5.3375   -3.2479   13.5825 H   0  0  0  0  0  0  0  0  0  0  0  0
   -3.7907   -4.0919   13.5609 H   0  0  0  0  0  0  0  0  0  0  0  0
   -4.0043   -2.5870   12.6413 H   0  0  0  0  0  0  0  0  0  0  0  0
   -2.2103   -3.6575   16.2628 H   0  0  0  0  0  0  0  0  0  0  0  0
    0.1961   -3.2002   16.5072 H   0  0  0  0  0  0  0  0  0  0  0  0
    1.9973   -1.9477   16.0590 H   0  0  0  0  0  0  0  0  0  0  0  0
    5.1715    1.9507   13.3355 H   0  0  0  0  0  0  0  0  0  0  0  0
    6.7782    0.9732   15.2765 H   0  0  0  0  0  0  0  0  0  0  0  0
    6.2398   -0.8227   17.3413 H   0  0  0  0  0  0  0  0  0  0  0  0
    4.6155    2.3316   11.2554 H   0  0  0  0  0  0  0  0  0  0  0  0
    3.9649    3.8698    9.4220 H   0  0  0  0  0  0  0  0  0  0  0  0
   -1.2802    3.8493   10.9568 H   0  0  0  0  0  0  0  0  0  0  0  0
    2.1994    4.8389    7.3819 H   0  0  0  0  0  0  0  0  0  0  0  0
    2.4134    6.2165    8.4892 H   0  0  0  0  0  0  0  0  0  0  0  0
    0.9332    5.9474    7.4753 H   0  0  0  0  0  0  0  0  0  0  0  0
    0.5767    2.1227   12.7182 H   0  0  0  0  0  0  0  0  0  0  0  0
   -0.1144   -0.0216   13.6244 H   0  0  0  0  0  0  0  0  0  0  0  0
   -3.0360    1.0624   11.7579 H   0  0  0  0  0  0  0  0  0  0  0  0
   -1.5052    0.1989   11.6324 H   0  0  0  0  0  0  0  0  0  0  0  0
   -1.7487    1.4445   12.8985 H   0  0  0  0  0  0  0  0  0  0  0  0
  1  2  1  0
  1 31  1  0
  1 32  1  0
  1 33  1  0
  2  3  1  0
  3  4  2  0
  3 28  1  0
  4  5  1  0
  4 34  1  0
  5  6  2  0
  5 35  1  0
  6  7  1  0
  6 27  1  0
  7  8  1  0
  7 36  1  0
  8  9  2  0
  8 16  1  0
  9 10  1  0
 10 11  2  0
 10 17  1  0
 11 12  1  0
 11 37  1  0
 12 13  1  0
 12 16  1  0
 13 14  2  0
 13 38  1  0
 14 15  1  0
 14 39  1  0
 15 16  2  0
 17 18  2  0
 17 26  1  0
 18 19  1  0
 18 40  1  0
 19 20  2  0
 19 41  1  0
 20 21  1  0
 20 24  1  0
 21 22  1  0
 21 26  2  0
 22 23  2  0
 22 42  1  0
 23 24  1  0
 24 25  1  0
 25 43  1  0
 25 44  1  0
 25 45  1  0
 26 46  1  0
 27 28  2  0
 27 47  1  0
 28 29  1  0
 29 30  1  0
 30 48  1  0
 30 49  1  0
 30 50  1  0
M  END
>  <IC50[nM]>  (4) 
20.899999999999999

>  <atom.dprop.PartialCharge>  (4) 
0.111433335 -0.32558376 0.08323395 -0.14583716 -0.117309645 0.12685333 -0.6981325 0.61508936 -0.62345827 0.1675872 -0.123817086 -0.06422725 -0.2895821 0.3266878 -0.6257276 0.2663256 -0.09179996 -0.08137469 -0.14182302 0.082701296 -0.2100204 0.34916046 -0.39744732 -0.31272757 0.22422843 -0.026610963 -0.12486475 0.081680335 -0.33210948 0.11660255 0.04405885 0.04405885 0.04405885 0.14296728 0.14332631 0.4403701 0.176333 0.18042737 0.050207548 0.13679703 0.14459701 0.052750923 0.05668562 0.05668562 0.05668562 0.13857514 0.14848779 0.04126557 0.04126557 0.04126557

>  <experimental dG reference units>  (4) 
nM

>  <experimental dG reference field>  (4) 
IC50[nM]

>  <kJ/mol experimental dG>  (4) 
-44.108939305712575

>  <kcal/mol experimental dG>  (4) 
-10.542289509013521

>  <AmberAM1BCCCache>  (4) 
gASVEQQAAAAAAABdlCiMFm51bXB5Ll9jb3JlLm11bHRpYXJyYXmUjAZzY2FsYXKUk5SMBW51bXB5lIwFZHR5cGWUk5SMAmY4lImIh5RSlChLA4wBPJROTk5K/////0r/////SwB0lGJDCBCfqluQbfU/lIaUUpRoA2gJQwh8ZC//sx0PwJSGlFKUaANoCUMIzZ2r163J6j+UhpRSlGgDaAlDCHt8QWQ1kf6/lIaUUpRoA2gJQwi1JtKyIcf3v5SGlFKUaANoCUMIkOlSV2qK9j+UhpRSlGgDaAlDCAlIH/X1oCDAlIaUUpRoA2gJQwjctrRPW5kgQJSGlFKUaANoCUMIeN0oOypOIcCUhpRSlGgDaAlDCO/tWP869RVAlIaUUpRoA2gJQwiU7dpPU5AFwJSGlFKUaANoCUMINcF3NQ814T+UhpRSlGgDaAlDCN0PWMpLMgTAlIaUUpRoA2gJQwgbg1mXaAmrv5SGlFKUaANoCUMINtHCQgGyBsCUhpRSlGgDaAlDCMtjv9tT2QDAlIaUUpRoA2gJQwgEWePTTvv/v5SGlFKUaANoCUMIlb22hVCp5r+UhpRSlGgDaAlDCK2+eS1K7fu/lIaUUpRoA2gJQwhK5MvanuDcv5SGlFKUaANoCUMI0mMIdZbuBMCUhpRSlGgDaAlDCBB3TekcfRBAlIaUUpRoA2gJQwh5swpITa0XwJSGlFKUaANoCUMIWr5EF6Wd7z+UhpRSlGgDaAlDCJVy4DkVTeI/lIaUUpRoA2gJQwicJQ8LKIPiv5SGlFKUaANoCUMI+iFOW2n397+UhpRSlGgDaAlDCNwy0aMTnvM/lIaUUpRoA2gJQwjAX6un+00PwJSGlFKUaANoCUMIgnQGSBUg9z+UhpRSlGgDaAlDCAmCOVxYtOA/lIaUUpRoA2gJQwgJgjlcWLTgP5SGlFKUaANoCUMICYI5XFi04D+UhpRSlGgDaAlDCILvAF5TY/o/lIaUUpRoA2gJQwjG6nwGm5P6P5SGlFKUaANoCUMIlRKYpQ9/FECUhpRSlGgDaAlDCAAlerOPfgBAlIaUUpRoA2gJQwj/CiTSGYgBQJSGlFKUaANoCUMIuQ+oKdJXAUCUhpRSlGgDaAlDCMO20EOvpvw/lIaUUpRoA2gJQwjG6nwGm5P6P5SGlFKUaANoCUMI5JSmTVAE5T+UhpRSlGgDaAlDCEOrbefPGuU/lIaUUpRoA2gJQwhDq23nzxrlP5SGlFKUaANoCUMIQ6tt588a5T+UhpRSlGgDaAlDCDz0hLULM/o/lIaUUpRoA2gJQwiqlTTfpPj9P5SGlFKUaANoCUMINcF3NQ814T+UhpRSlGgDaAlDCDXBdzUPNeE/lIaUUpRoA2gJQwg1wXc1DzXhP5SGlFKUZS4=

$$$$
CHEMBL3265015
     RDKit          3D

 51 54  0  0  0  0  0  0  0  0999 V2000
   -4.2658   -3.1175   13.5713 C   0  0  0  0  0  0  0  0  0  0  0  0
   -3.8897   -2.4164   14.7436 O   0  0  0  0  0  0  0  0  0  0  0  0
   -2.5439   -2.1718   14.8418 C   0  0  0  0  0  0  0  0  0  0  0  0
   -1.7693   -2.9126   15.7244 C   0  0  0  0  0  0  0  0  0  0  0  0
   -0.4086   -2.6509   15.8610 C   0  0  0  0  0  0  0  0  0  0  0  0
    0.2048   -1.6479   15.1096 C   0  0  0  0  0  0  0  0  0  0  0  0
    1.6017   -1.4006   15.3489 N   0  0  0  0  0  0  0  0  0  0  0  0
    2.5425   -0.4814   14.7772 C   0  0  0  0  0  0  0  0  0  0  0  0
    2.1966    0.3306   13.7372 N   0  0  0  0  0  0  0  0  0  0  0  0
    3.1151    1.2253   13.2359 C   0  0  0  0  0  0  0  0  0  0  0  0
    4.4125    1.2753   13.7158 C   0  0  0  0  0  0  0  0  0  0  0  0
    4.7468    0.4823   14.7726 N   0  0  0  0  0  0  0  0  0  0  0  0
    5.9017    0.3875   15.4968 C   0  0  0  0  0  0  0  0  0  0  0  0
    5.6113   -0.5378   16.5263 C   0  0  0  0  0  0  0  0  0  0  0  0
    4.3968   -1.0589   16.3854 N   0  0  0  0  0  0  0  0  0  0  0  0
    3.8461   -0.4133   15.3411 C   0  0  0  0  0  0  0  0  0  0  0  0
    2.6468    2.1713   12.1254 C   0  0  0  0  0  0  0  0  0  0  0  0
    1.2968    2.6023   12.0851 C   0  0  0  0  0  0  0  0  0  0  0  0
    0.8699    3.4876   11.0892 C   0  0  0  0  0  0  0  0  0  0  0  0
    1.7721    3.9706   10.1365 C   0  0  0  0  0  0  0  0  0  0  0  0
    3.0808    3.5379   10.1569 C   0  0  0  0  0  0  0  0  0  0  0  0
    3.5135    2.6334   11.0944 C   0  0  0  0  0  0  0  0  0  0  0  0
    4.9035    2.1468   10.9601 C   0  0  0  0  0  0  0  0  0  0  0  0
    1.3475    4.9212    9.0657 C   0  0  0  0  0  0  0  0  0  0  0  0
    0.1679    5.0957    8.8335 O   0  0  0  0  0  0  0  0  0  0  0  0
    2.3260    5.5415    8.3940 N   0  0  0  0  0  0  0  0  0  0  0  0
   -0.5697   -0.9333   14.1871 C   0  0  0  0  0  0  0  0  0  0  0  0
   -1.9604   -1.1834   14.0595 C   0  0  0  0  0  0  0  0  0  0  0  0
   -2.7686   -0.4755   13.1689 O   0  0  0  0  0  0  0  0  0  0  0  0
   -2.2961    0.5699   12.3655 C   0  0  0  0  0  0  0  0  0  0  0  0
   -5.3441   -3.2619   13.5806 H   0  0  0  0  0  0  0  0  0  0  0  0
   -3.7878   -4.0957   13.5514 H   0  0  0  0  0  0  0  0  0  0  0  0
   -4.0115   -2.5871   12.6508 H   0  0  0  0  0  0  0  0  0  0  0  0
   -2.2259   -3.6928   16.3199 H   0  0  0  0  0  0  0  0  0  0  0  0
    0.1739   -3.2287   16.5652 H   0  0  0  0  0  0  0  0  0  0  0  0
    1.9820   -1.9375   16.1133 H   0  0  0  0  0  0  0  0  0  0  0  0
    5.1700    1.9545   13.3487 H   0  0  0  0  0  0  0  0  0  0  0  0
    6.7839    0.9785   15.2881 H   0  0  0  0  0  0  0  0  0  0  0  0
    6.2593   -0.8148   17.3315 H   0  0  0  0  0  0  0  0  0  0  0  0
    0.5957    2.2582   12.8300 H   0  0  0  0  0  0  0  0  0  0  0  0
   -0.1662    3.8085   11.0690 H   0  0  0  0  0  0  0  0  0  0  0  0
    3.7700    3.8907    9.4150 H   0  0  0  0  0  0  0  0  0  0  0  0
    5.2620    2.3460   11.8705 H   0  0  0  0  0  0  0  0  0  0  0  0
    5.3949    2.8482   10.3208 H   0  0  0  0  0  0  0  0  0  0  0  0
    5.0504    1.1199   10.6395 H   0  0  0  0  0  0  0  0  0  0  0  0
    2.1194    6.2002    7.6574 H   0  0  0  0  0  0  0  0  0  0  0  0
    3.2889    5.3426    8.6184 H   0  0  0  0  0  0  0  0  0  0  0  0
   -0.1342   -0.2419   13.6061 H   0  0  0  0  0  0  0  0  0  0  0  0
   -3.0776    1.0040   11.7462 H   0  0  0  0  0  0  0  0  0  0  0  0
   -1.4823    0.2640   11.7134 H   0  0  0  0  0  0  0  0  0  0  0  0
   -2.0380    1.3248   13.0744 H   0  0  0  0  0  0  0  0  0  0  0  0
  1  2  1  0
  1 31  1  0
  1 32  1  0
  1 33  1  0
  2  3  1  0
  3  4  2  0
  3 28  1  0
  4  5  1  0
  4 34  1  0
  5  6  2  0
  5 35  1  0
  6  7  1  0
  6 27  1  0
  7  8  1  0
  7 36  1  0
  8  9  2  0
  8 16  1  0
  9 10  1  0
 10 11  2  0
 10 17  1  0
 11 12  1  0
 11 37  1  0
 12 13  1  0
 12 16  1  0
 13 14  2  0
 13 38  1  0
 14 15  1  0
 14 39  1  0
 15 16  2  0
 17 18  2  0
 17 22  1  0
 18 19  1  0
 18 40  1  0
 19 20  2  0
 19 41  1  0
 20 21  1  0
 20 24  1  0
 21 22  2  0
 21 42  1  0
 22 23  1  0
 23 43  1  0
 23 44  1  0
 23 45  1  0
 24 25  2  0
 24 26  1  0
 26 46  1  0
 26 47  1  0
 27 28  2  0
 27 48  1  0
 28 29  1  0
 29 30  1  0
 30 49  1  0
 30 50  1  0
 30 51  1  0
M  END
>  <IC50[nM]>  (5) 
113

>  <atom.dprop.PartialCharge>  (5) 
0.11307485 -0.323942 0.08487543 -0.14419553 -0.11566809 0.12849475 -0.6964372 0.6171491 -0.6276154 0.16193488 -0.121943474 -0.069365606 -0.28744918 0.32832912 -0.6240854 0.26830345 -0.054464657 -0.11027874 -0.09851925 -0.12810166 -0.0915514 -0.05361253 -0.050105464 0.67512864 -0.6056684 -0.6764348 -0.123223126 0.08332181 -0.33046773 0.118244044 0.04570041 0.04570041 0.04570041 0.14460891 0.14496793 0.4420117 0.17586856 0.182069 0.051849112 0.13826148 0.14397316 0.14466685 0.04845038 0.04845038 0.04845038 0.31234685 0.31234685 0.15012942 0.042907134 0.042907134 0.042907134

>  <experimental dG reference units>  (5) 
nM

>  <experimental dG reference field>  (5) 
IC50[nM]

>  <kJ/mol experimental dG>  (5) 
-39.899372138270806

>  <kcal/mol experimental dG>  (5) 
-9.536178809338146

>  <AmberAM1BCCCache>  (5) 
gASVJAQAAAAAAABdlCiMFm51bXB5Ll9jb3JlLm11bHRpYXJyYXmUjAZzY2FsYXKUk5SMBW51bXB5lIwFZHR5cGWUk5SMAmY4lImIh5RSlChLA4wBPJROTk5K/////0r/////SwB0lGJDCOB4JIoPKPU/lIaUUpRoA2gJQwgKm1D4WtYNwJSGlFKUaANoCUMIksMm8xHn7z+UhpRSlGgDaAlDCGWnS41upv6/lIaUUpRoA2gJQwgTQY6pVYX4v5SGlFKUaANoCUMIGa76+yse9z+UhpRSlGgDaAlDCGaNQBqdoyDAlIaUUpRoA2gJQwgzMRuluJkgQJSGlFKUaANoCUMIFuZ0HKAvIcCUhpRSlGgDaAlDCGRxorsVXxVAlIaUUpRoA2gJQwgiF1FYv80EwJSGlFKUaANoCUMI8xj/j05x3z+UhpRSlGgDaAlDCAwqYbagDATAlIaUUpRoA2gJQwgOD6CZo56hv5SGlFKUaANoCUMIlOysRESABsCUhpRSlGgDaAlDCPt9yMeoswDAlIaUUpRoA2gJQwgufIDv1Sn2v5SGlFKUaANoCUMIjZiY/CcI9b+UhpRSlGgDaAlDCKSFiJ5GyfW/lIaUUpRoA2gJQwhK4RMkvkH4v5SGlFKUaANoCUMIIRE/tAQ58L+UhpRSlGgDaAlDCOzieL1ereS/lIaUUpRoA2gJQwjSwdxYVP/lv5SGlFKUaANoCUMILQsJPQeTH0CUhpRSlGgDaAlDCH1BE479qxzAlIaUUpRoA2gJQwiajFDhb80fwJSGlFKUaANoCUMIrtZz+KHD/L+UhpRSlGgDaAlDCDXp7EGswvQ/lIaUUpRoA2gJQwhQlsygogYOwJSGlFKUaANoCUMI9mUULC7p9T+UhpRSlGgDaAlDCNV0a5INquA/lIaUUpRoA2gJQwjVdGuSDargP5SGlFKUaANoCUMI1XRrkg2q4D+UhpRSlGgDaAlDCN2/ct1hfvo/lIaUUpRoA2gJQwiYxPY0Gk76P5SGlFKUaANoCUMIFQaEOtyLFECUhpRSlGgDaAlDCP8LUt0omABAlIaUUpRoA2gJQwj+8fv7sqEBQJSGlFKUaANoCUMIivWePX19AUCUhpRSlGgDaAlDCJaqoFOkV/s/lIaUUpRoA2gJQwiB1waT+4z5P5SGlFKUaANoCUMIBWamXrMT/j+UhpRSlGgDaAlDCEJ7eVEgbuM/lIaUUpRoA2gJQwhCe3lRIG7jP5SGlFKUaANoCUMIQnt5USBu4z+UhpRSlGgDaAlDCIFHjmdeiQ1AlIaUUpRoA2gJQwiBR45nXokNQJSGlFKUaANoCUMIBoD8PykK/T+UhpRSlGgDaAlDCF9rY+OcCuE/lIaUUpRoA2gJQwhfa2PjnArhP5SGlFKUaANoCUMIX2tj45wK4T+UhpRSlGUu

$$$$
CHEMBL3265014
     RDKit          3D

 52 55  0  0  0  0  0  0  0  0999 V2000
   -4.2555   -3.1029   13.5707 C   0  0  0  0  0  0  0  0  0  0  0  0
   -3.8740   -2.3535   14.7166 O   0  0  0  0  0  0  0  0  0  0  0  0
   -2.5261   -2.1057   14.8053 C   0  0  0  0  0  0  0  0  0  0  0  0
   -1.7497   -2.8673   15.6804 C   0  0  0  0  0  0  0  0  0  0  0  0
   -0.3863   -2.6106   15.8150 C   0  0  0  0  0  0  0  0  0  0  0  0
    0.2220   -1.5829   15.0890 C   0  0  0  0  0  0  0  0  0  0  0  0
    1.5930   -1.3491   15.3060 N   0  0  0  0  0  0  0  0  0  0  0  0
    2.5452   -0.4689   14.7536 C   0  0  0  0  0  0  0  0  0  0  0  0
    2.2178    0.3551   13.7190 N   0  0  0  0  0  0  0  0  0  0  0  0
    3.1227    1.2406   13.2181 C   0  0  0  0  0  0  0  0  0  0  0  0
    4.4207    1.3039   13.7175 C   0  0  0  0  0  0  0  0  0  0  0  0
    4.7482    0.4921   14.7654 N   0  0  0  0  0  0  0  0  0  0  0  0
    5.8898    0.3836   15.5035 C   0  0  0  0  0  0  0  0  0  0  0  0
    5.5715   -0.5089   16.5177 C   0  0  0  0  0  0  0  0  0  0  0  0
    4.3818   -1.0543   16.3920 N   0  0  0  0  0  0  0  0  0  0  0  0
    3.8330   -0.4170   15.3252 C   0  0  0  0  0  0  0  0  0  0  0  0
    2.6564    2.1560   12.1340 C   0  0  0  0  0  0  0  0  0  0  0  0
    3.5566    2.6280   11.1666 C   0  0  0  0  0  0  0  0  0  0  0  0
    3.1294    3.4499   10.1277 C   0  0  0  0  0  0  0  0  0  0  0  0
    1.7879    3.8078   10.0318 C   0  0  0  0  0  0  0  0  0  0  0  0
    1.3279    4.6787    8.9005 C   0  0  0  0  0  0  0  0  0  0  0  0
    0.1733    5.0540    8.7192 O   0  0  0  0  0  0  0  0  0  0  0  0
    2.3332    5.0113    8.0903 N   0  0  0  0  0  0  0  0  0  0  0  0
    0.8660    3.3707   10.9895 C   0  0  0  0  0  0  0  0  0  0  0  0
   -0.4627    3.7335   10.9031 O   0  0  0  0  0  0  0  0  0  0  0  0
   -1.2689    3.2382   11.9077 C   0  0  0  0  0  0  0  0  0  0  0  0
    1.3140    2.5576   12.0419 C   0  0  0  0  0  0  0  0  0  0  0  0
   -0.5664   -0.8256   14.2115 C   0  0  0  0  0  0  0  0  0  0  0  0
   -1.9389   -1.0760   14.0580 C   0  0  0  0  0  0  0  0  0  0  0  0
   -2.6991   -0.3052   13.2022 O   0  0  0  0  0  0  0  0  0  0  0  0
   -2.0020    0.6747   12.5251 C   0  0  0  0  0  0  0  0  0  0  0  0
   -5.3281   -3.2944   13.5971 H   0  0  0  0  0  0  0  0  0  0  0  0
   -3.7409   -4.0644   13.5414 H   0  0  0  0  0  0  0  0  0  0  0  0
   -4.0324   -2.5598   12.6514 H   0  0  0  0  0  0  0  0  0  0  0  0
   -2.2100   -3.6528   16.2607 H   0  0  0  0  0  0  0  0  0  0  0  0
    0.1910   -3.2101   16.5030 H   0  0  0  0  0  0  0  0  0  0  0  0
    2.0247   -1.8856   16.0476 H   0  0  0  0  0  0  0  0  0  0  0  0
    5.1702    2.0029   13.3720 H   0  0  0  0  0  0  0  0  0  0  0  0
    6.7655    0.9739   15.2896 H   0  0  0  0  0  0  0  0  0  0  0  0
    6.2092   -0.8329   17.3299 H   0  0  0  0  0  0  0  0  0  0  0  0
    4.5935    2.3311   11.2005 H   0  0  0  0  0  0  0  0  0  0  0  0
    3.8342    3.7941    9.3846 H   0  0  0  0  0  0  0  0  0  0  0  0
    2.2554    5.5897    7.2660 H   0  0  0  0  0  0  0  0  0  0  0  0
    3.2955    4.7255    8.2018 H   0  0  0  0  0  0  0  0  0  0  0  0
   -2.2930    3.5778   11.7524 H   0  0  0  0  0  0  0  0  0  0  0  0
   -0.9095    3.5968   12.8721 H   0  0  0  0  0  0  0  0  0  0  0  0
   -1.2412    2.1486   11.8919 H   0  0  0  0  0  0  0  0  0  0  0  0
    0.6053    2.2127   12.7810 H   0  0  0  0  0  0  0  0  0  0  0  0
   -0.1548   -0.0169   13.6336 H   0  0  0  0  0  0  0  0  0  0  0  0
   -2.6852    1.2257   11.8788 H   0  0  0  0  0  0  0  0  0  0  0  0
   -1.2219    0.2131   11.9198 H   0  0  0  0  0  0  0  0  0  0  0  0
   -1.5485    1.3591   13.2420 H   0  0  0  0  0  0  0  0  0  0  0  0
  1  2  1  0
  1 32  1  0
  1 33  1  0
  1 34  1  0
  2  3  1  0
  3  4  2  0
  3 29  1  0
  4  5  1  0
  4 35  1  0
  5  6  2  0
  5 36  1  0
  6  7  1  0
  6 28  1  0
  7  8  1  0
  7 37  1  0
  8  9  2  0
  8 16  1  0
  9 10  1  0
 10 11  2  0
 10 17  1  0
 11 12  1  0
 11 38  1  0
 12 13  1  0
 12 16  1  0
 13 14  2  0
 13 39  1  0
 14 15  1  0
 14 40  1  0
 15 16  2  0
 17 18  2  0
 17 27  1  0
 18 19  1  0
 18 41  1  0
 19 20  2  0
 19 42  1  0
 20 21  1  0
 20 24  1  0
 21 22  2  0
 21 23  1  0
 23 43  1  0
 23 44  1  0
 24 25  1  0
 24 27  2  0
 25 26  1  0
 26 45  1  0
 26 46  1  0
 26 47  1  0
 27 48  1  0
 28 29  2  0
 28 49  1  0
 29 30  1  0
 30 31  1  0
 31 50  1  0
 31 51  1  0
 31 52  1  0
M  END
>  <IC50[nM]>  (6) 
23.800000000000001

>  <atom.dprop.PartialCharge>  (6) 
0.11262135 -0.32439557 0.08442194 -0.14464906 -0.11612159 0.12804128 -0.69682807 0.61363596 -0.6166279 0.1594891 -0.115593344 -0.06552538 -0.28849688 0.32787567 -0.6245391 0.26766175 -0.028540943 -0.14301158 -0.07199089 -0.15151387 0.686582 -0.593414 -0.68060005 0.17384677 -0.31135112 0.1128259 -0.18998402 -0.12367665 0.08286832 -0.3309213 0.11779055 0.0452469 0.0452469 0.0452469 0.14415538 0.14451441 0.44155818 0.17692393 0.18161549 0.051395603 0.14302771 0.14203352 0.31137097 0.31137097 0.047462698 0.047462698 0.047462698 0.14698865 0.1496759 0.042453624 0.042453624 0.042453624

>  <experimental dG reference units>  (6) 
nM

>  <experimental dG reference field>  (6) 
IC50[nM]

>  <kJ/mol experimental dG>  (6) 
-43.784831955176415

>  <kcal/mol experimental dG>  (6) 
-10.464825993110997

>  <AmberAM1BCCCache>  (6) 
gASVNwQAAAAAAABdlCiMFm51bXB5Ll9jb3JlLm11bHRpYXJyYXmUjAZzY2FsYXKUk5SMBW51bXB5lIwFZHR5cGWUk5SMAmY4lImIh5RSlChLA4wBPJROTk5K/////0r/////SwB0lGJDCB1LDDstbvU/lIaUUpRoA2gJQwh0jn6PZR0PwJSGlFKUaANoCUMIcexm53Yr6z+UhpRSlGgDaAlDCBHOHVm8qP6/lIaUUpRoA2gJQwgGfTL/YK73v5SGlFKUaANoCUMIWJo4jr9a9j+UhpRSlGgDaAlDCFgRUkP0rCDAlIaUUpRoA2gJQwhpae60m7cgQJSGlFKUaANoCUMIjigtqg1IIcCUhpRSlGgDaAlDCCNnvT2LZBVAlIaUUpRoA2gJQwjVLPxpwrYEwJSGlFKUaANoCUMIR362YBdo3z+UhpRSlGgDaAlDCO5A7d2R6QPAlIaUUpRoA2gJQwgtYEoYxcedv5SGlFKUaANoCUMIu/60FH2NBsCUhpRSlGgDaAlDCCKQ0JfhwADAlIaUUpRoA2gJQwiuyHJ35qn0v5SGlFKUaANoCUMIvU0KlC2R+b+UhpRSlGgDaAlDCIQI6RQfHvK/lIaUUpRoA2gJQwgIp9PtyCH8v5SGlFKUaANoCUMIQbq0bJwLIECUhpRSlGgDaAlDCBxOujdkjhzAlIaUUpRoA2gJQwg5pqJ7ESsfwJSGlFKUaANoCUMID2sQI4w9+D+UhpRSlGgDaAlDCGcuSvwqjBDAlIaUUpRoA2gJQwhlYN7E6pT0P5SGlFKUaANoCUMIxc+4+nph9L+UhpRSlGgDaAlDCGN/9Co9lve/lIaUUpRoA2gJQwiL3HBX1LbzP5SGlFKUaANoCUMIF4y8Y4k1D8CUhpRSlGgDaAlDCI8gaCeyIPc/lIaUUpRoA2gJQwhka4kr4fXgP5SGlFKUaANoCUMIZGuJK+H14D+UhpRSlGgDaAlDCGRriSvh9eA/lIaUUpRoA2gJQwiOm2I98GP6P5SGlFKUaANoCUMIjptiPfBj+j+UhpRSlGgDaAlDCHb53JB1qRRAlIaUUpRoA2gJQwgH+yoj3n4AQJSGlFKUaANoCUMIqN4SFoygAUCUhpRSlGgDaAlDCGLjlm1EcAFAlIaUUpRoA2gJQwjsnSRpzEv6P5SGlFKUaANoCUMI6YPOh1ZV+z+UhpRSlGgDaAlDCCC3V7gKag1AlIaUUpRoA2gJQwggt1e4CmoNQJSGlFKUaANoCUMINpNA+sSJ4z+UhpRSlGgDaAlDCDaTQPrEieM/lIaUUpRoA2gJQwg2k0D6xInjP5SGlFKUaANoCUMIQB44Lltj/z+UhpRSlGgDaAlDCPw8EmeJKf4/lIaUUpRoA2gJQwhPGTv0SDbhP5SGlFKUaANoCUMITxk79Eg24T+UhpRSlGgDaAlDCE8ZO/RINuE/lIaUUpRlLg==

$$$$
CHEMBL3264994
     RDKit          3D

 64 68  0  0  0  0  0  0  0  0999 V2000
   -4.1531   -3.4266   13.5369 C   0  0  0  0  0  0  0  0  0  0  0  0
   -3.9919   -2.3907   14.6629 C   0  0  0  0  0  0  0  0  0  0  0  0
   -4.6875   -1.0646   14.3101 C   0  0  0  0  0  0  0  0  0  0  0  0
   -4.4873   -2.9438   16.0103 C   0  0  0  0  0  0  0  0  0  0  0  0
   -2.5261   -2.1057   14.8053 C   0  0  0  0  0  0  0  0  0  0  0  0
   -1.9389   -1.0760   14.0580 C   0  0  0  0  0  0  0  0  0  0  0  0
   -0.5664   -0.8256   14.2115 C   0  0  0  0  0  0  0  0  0  0  0  0
    0.2220   -1.5829   15.0890 C   0  0  0  0  0  0  0  0  0  0  0  0
    1.5930   -1.3491   15.3060 N   0  0  0  0  0  0  0  0  0  0  0  0
    2.5452   -0.4689   14.7536 C   0  0  0  0  0  0  0  0  0  0  0  0
    2.2178    0.3551   13.7190 N   0  0  0  0  0  0  0  0  0  0  0  0
    3.1227    1.2406   13.2181 C   0  0  0  0  0  0  0  0  0  0  0  0
    4.4207    1.3039   13.7175 C   0  0  0  0  0  0  0  0  0  0  0  0
    4.7482    0.4921   14.7654 N   0  0  0  0  0  0  0  0  0  0  0  0
    5.8898    0.3836   15.5035 C   0  0  0  0  0  0  0  0  0  0  0  0
    5.5715   -0.5089   16.5177 C   0  0  0  0  0  0  0  0  0  0  0  0
    4.3818   -1.0543   16.3920 N   0  0  0  0  0  0  0  0  0  0  0  0
    3.8330   -0.4170   15.3252 C   0  0  0  0  0  0  0  0  0  0  0  0
    2.6564    2.1560   12.1340 C   0  0  0  0  0  0  0  0  0  0  0  0
    3.5566    2.6280   11.1666 C   0  0  0  0  0  0  0  0  0  0  0  0
    3.1294    3.4499   10.1277 C   0  0  0  0  0  0  0  0  0  0  0  0
    1.7879    3.8078   10.0318 C   0  0  0  0  0  0  0  0  0  0  0  0
    0.8660    3.3707   10.9895 C   0  0  0  0  0  0  0  0  0  0  0  0
   -0.5399    3.7537   10.8977 N   0  0  0  0  0  0  0  0  0  0  0  0
   -1.2550    4.3141   11.8736 C   0  0  0  0  0  0  0  0  0  0  0  0
   -0.8140    4.4931   13.0050 O   0  0  0  0  0  0  0  0  0  0  0  0
   -2.6333    4.6854   11.4124 C   0  0  0  0  0  0  0  0  0  0  0  0
   -3.5436    5.2295   12.3108 C   0  0  0  0  0  0  0  0  0  0  0  0
   -4.8206    5.5735   11.8835 C   0  0  0  0  0  0  0  0  0  0  0  0
   -5.1873    5.3735   10.5579 C   0  0  0  0  0  0  0  0  0  0  0  0
   -4.2770    4.8294    9.6596 C   0  0  0  0  0  0  0  0  0  0  0  0
   -3.0000    4.4854   10.0869 C   0  0  0  0  0  0  0  0  0  0  0  0
   -6.5655    5.7447   10.0968 C   0  0  0  0  0  0  0  0  0  0  0  0
   -6.9139    5.5749    8.9190 O   0  0  0  0  0  0  0  0  0  0  0  0
   -7.3451    6.2270   10.9318 O   0  0  0  0  0  0  0  0  0  0  0  0
    1.3140    2.5576   12.0419 C   0  0  0  0  0  0  0  0  0  0  0  0
   -0.3863   -2.6106   15.8150 C   0  0  0  0  0  0  0  0  0  0  0  0
   -1.7497   -2.8673   15.6804 C   0  0  0  0  0  0  0  0  0  0  0  0
   -5.2013   -3.6828   13.3771 H   0  0  0  0  0  0  0  0  0  0  0  0
   -3.6186   -4.3486   13.7684 H   0  0  0  0  0  0  0  0  0  0  0  0
   -3.7570   -3.0497   12.5933 H   0  0  0  0  0  0  0  0  0  0  0  0
   -4.2998   -0.6503   13.3787 H   0  0  0  0  0  0  0  0  0  0  0  0
   -4.5308   -0.3167   15.0883 H   0  0  0  0  0  0  0  0  0  0  0  0
   -5.7636   -1.1975   14.1906 H   0  0  0  0  0  0  0  0  0  0  0  0
   -5.5529   -3.1749   15.9796 H   0  0  0  0  0  0  0  0  0  0  0  0
   -4.3275   -2.2256   16.8153 H   0  0  0  0  0  0  0  0  0  0  0  0
   -3.9581   -3.8582   16.2809 H   0  0  0  0  0  0  0  0  0  0  0  0
   -2.5303   -0.4809   13.3780 H   0  0  0  0  0  0  0  0  0  0  0  0
   -0.1531   -0.0197   13.6305 H   0  0  0  0  0  0  0  0  0  0  0  0
    2.0242   -1.8881   16.0458 H   0  0  0  0  0  0  0  0  0  0  0  0
    5.1702    2.0027   13.3717 H   0  0  0  0  0  0  0  0  0  0  0  0
    6.7657    0.9737   15.2895 H   0  0  0  0  0  0  0  0  0  0  0  0
    6.2091   -0.8330   17.3300 H   0  0  0  0  0  0  0  0  0  0  0  0
    4.5934    2.3308   11.2002 H   0  0  0  0  0  0  0  0  0  0  0  0
    3.8342    3.7938    9.3845 H   0  0  0  0  0  0  0  0  0  0  0  0
    1.4564    4.4348    9.2165 H   0  0  0  0  0  0  0  0  0  0  0  0
   -0.8833    3.5257    9.9756 H   0  0  0  0  0  0  0  0  0  0  0  0
   -3.2580    5.3853   13.3428 H   0  0  0  0  0  0  0  0  0  0  0  0
   -5.5293    5.9971   12.5829 H   0  0  0  0  0  0  0  0  0  0  0  0
   -4.5625    4.6736    8.6276 H   0  0  0  0  0  0  0  0  0  0  0  0
   -2.2913    4.0618    9.3875 H   0  0  0  0  0  0  0  0  0  0  0  0
    0.6052    2.2121   12.7807 H   0  0  0  0  0  0  0  0  0  0  0  0
    0.1929   -3.2118   16.5002 H   0  0  0  0  0  0  0  0  0  0  0  0
   -2.2057   -3.6608   16.2538 H   0  0  0  0  0  0  0  0  0  0  0  0
  1  2  1  0
  1 39  1  0
  1 40  1  0
  1 41  1  0
  2  3  1  0
  2  4  1  0
  2  5  1  0
  3 42  1  0
  3 43  1  0
  3 44  1  0
  4 45  1  0
  4 46  1  0
  4 47  1  0
  5  6  2  0
  5 38  1  0
  6  7  1  0
  6 48  1  0
  7  8  2  0
  7 49  1  0
  8  9  1  0
  8 37  1  0
  9 10  1  0
  9 50  1  0
 10 11  2  0
 10 18  1  0
 11 12  1  0
 12 13  2  0
 12 19  1  0
 13 14  1  0
 13 51  1  0
 14 15  1  0
 14 18  1  0
 15 16  2  0
 15 52  1  0
 16 17  1  0
 16 53  1  0
 17 18  2  0
 19 20  2  0
 19 36  1  0
 20 21  1  0
 20 54  1  0
 21 22  2  0
 21 55  1  0
 22 23  1  0
 22 56  1  0
 23 24  1  0
 23 36  2  0
 24 25  1  0
 24 57  1  0
 25 26  2  0
 25 27  1  0
 27 28  2  0
 27 32  1  0
 28 29  1  0
 28 58  1  0
 29 30  2  0
 29 59  1  0
 30 31  1  0
 30 33  1  0
 31 32  2  0
 31 60  1  0
 32 61  1  0
 33 34  2  0
 33 35  1  0
 36 62  1  0
 37 38  2  0
 37 63  1  0
 38 64  1  0
M  CHG  1  35  -1
M  END
>  <IC50[nM]>  (7) 
65

>  <atom.dprop.PartialCharge>  (7) 
-0.08552346 -0.016042456 -0.08552346 -0.08552346 -0.07318959 -0.114989355 -0.12502857 0.10347392 -0.69806385 0.6075999 -0.62436604 0.16487384 -0.1218837 -0.068159044 -0.29120296 0.32517025 -0.6272459 0.26408598 -0.047550935 -0.12074877 -0.115725145 -0.12743133 0.0588626 -0.48512712 0.6670129 -0.5743666 -0.16494793 -0.12463696 -0.10789947 -0.09152131 -0.10789947 -0.12463696 0.9082819 -0.81838053 -0.81838053 -0.14185458 -0.12502857 -0.114989355 0.03478939 0.03478939 0.03478939 0.03478939 0.03478939 0.03478939 0.03478939 0.03478939 0.03478939 0.13174577 0.13496697 0.44079116 0.17418644 0.17890951 0.048689745 0.13510567 0.13283306 0.15211394 0.31376997 0.12174809 0.16279283 0.16279283 0.12174809 0.1364947 0.13496697 0.13174577

>  <experimental dG reference units>  (7) 
nM

>  <experimental dG reference field>  (7) 
IC50[nM]

>  <kJ/mol experimental dG>  (7) 
-41.27875091727587

>  <kcal/mol experimental dG>  (7) 
-9.865858249826928

>  <AmberAM1BCCCache>  (7) 
gASVGwUAAAAAAABdlCiMFm51bXB5Ll9jb3JlLm11bHRpYXJyYXmUjAZzY2FsYXKUk5SMBW51bXB5lIwFZHR5cGWUk5SMAmY4lImIh5RSlChLA4wBPJROTk5K/////0r/////SwB0lGJDCDuOGsad/e+/lIaUUpRoA2gJQwh/JnBuxKWsv5SGlFKUaANoCUMIO44axp3977+UhpRSlGgDaAlDCDuOGsad/e+/lIaUUpRoA2gJQwgLhhvg8Anxv5SGlFKUaANoCUMIAW8cgu//87+UhpRSlGgDaAlDCJWcqUtkZPy/lIaUUpRoA2gJQwjQlwDZK7L6P5SGlFKUaANoCUMIb4Yf6rCUIMCUhpRSlGgDaAlDCA4GUFbSGiBAlIaUUpRoA2gJQwjfKNQgIL0gwJSGlFKUaANoCUMIa3l/rke5FUCUhpRSlGgDaAlDCOgFtlxtJQTAlIaUUpRoA2gJQwghCpxQkxbgP5SGlFKUaANoCUMIXQITG6NJBMCUhpRSlGgDaAlDCNXFyuoYdLO/lIaUUpRoA2gJQwievDcQxBEHwJSGlFKUaANoCUMINWmKiowvAMCUhpRSlGgDaAlDCOUzKjxvW/a/lIaUUpRoA2gJQwgm4aNAVaj5v5SGlFKUaANoCUMIolIEdZ0h9b+UhpRSlGgDaAlDCAmMWxlfDf2/lIaUUpRoA2gJQwgOdj3qA9XxP5SGlFKUaANoCUMI6kef51yjFsCUhpRSlGgDaAlDCBM+oUJLbCBAlIaUUpRoA2gJQwhVtaJOCnwcwJSGlFKUaANoCUMIA0Goou3JAcCUhpRSlGgDaAlDCP46cL8DE/a/lIaUUpRoA2gJQwjlMyo8b1v2v5SGlFKUaANoCUMI90fSFvx48b+UhpRSlGgDaAlDCOUzKjxvW/a/lIaUUpRoA2gJQwj+OnC/AxP2v5SGlFKUaANoCUMIPwLQzp9cJUCUhpRSlGgDaAlDCEfBNOrIViPAlIaUUpRoA2gJQwhHwTTqyFYjwJSGlFKUaANoCUMIim6jOd0DAsCUhpRSlGgDaAlDCJWcqUtkZPy/lIaUUpRoA2gJQwgBbxyC7//zv5SGlFKUaANoCUMIaAccIwGl2j+UhpRSlGgDaAlDCGgHHCMBpdo/lIaUUpRoA2gJQwhoBxwjAaXaP5SGlFKUaANoCUMIaAccIwGl2j+UhpRSlGgDaAlDCGgHHCMBpdo/lIaUUpRoA2gJQwhoBxwjAaXaP5SGlFKUaANoCUMIaAccIwGl2j+UhpRSlGgDaAlDCGgHHCMBpdo/lIaUUpRoA2gJQwhoBxwjAaXaP5SGlFKUaANoCUMIszJtpEOa+D+UhpRSlGgDaAlDCD0PDxRdBPo/lIaUUpRoA2gJQwg/n59qCjcUQJSGlFKUaANoCUMI9CFxMDMQAUCUhpRSlGgDaAlDCGgRI/4tuQFAlIaUUpRoA2gJQwj0IXEwMxABQJSGlFKUaANoCUMIyAUHZexk+j+UhpRSlGgDaAlDCBA1L9Afgvg/lIaUUpRoA2gJQwivJvWH698AQJSGlFKUaANoCUMIx9V2LN1PDkCUhpRSlGgDaAlDCBRp25ILb/Y/lIaUUpRoA2gJQwg1p7aOhSr+P5SGlFKUaANoCUMINae2joUq/j+UhpRSlGgDaAlDCBRp25ILb/Y/lIaUUpRoA2gJQwgQNS/QH4L4P5SGlFKUaANoCUMIPQ8PFF0E+j+UhpRSlGgDaAlDCLMybaRDmvg/lIaUUpRlLg==

$$$$
CHEMBL3265036
     RDKit          3D

 55 60  0  0  0  0  0  0  0  0999 V2000
   -4.7688   -2.7849   12.3431 C   0  0  0  0  0  0  0  0  0  0  0  0
   -5.3846   -4.1377   12.6456 C   0  0  0  0  0  0  0  0  0  0  0  0
   -4.4594   -4.9732   13.3425 O   0  0  0  0  0  0  0  0  0  0  0  0
   -4.3771   -4.8619   14.7737 C   0  0  0  0  0  0  0  0  0  0  0  0
   -4.4823   -3.4746   15.4482 C   0  0  0  0  0  0  0  0  0  0  0  0
   -3.8932   -2.3265   14.7696 N   0  0  0  0  0  0  0  0  0  0  0  0
   -4.5743   -1.9363   13.5651 C   0  0  0  0  0  0  0  0  0  0  0  0
   -2.4838   -2.1095   14.8521 C   0  0  0  0  0  0  0  0  0  0  0  0
   -1.6944   -2.8761   15.7249 C   0  0  0  0  0  0  0  0  0  0  0  0
   -0.3386   -2.6335   15.8473 C   0  0  0  0  0  0  0  0  0  0  0  0
    0.2634   -1.6168   15.1140 C   0  0  0  0  0  0  0  0  0  0  0  0
    1.6446   -1.3934   15.3516 N   0  0  0  0  0  0  0  0  0  0  0  0
    2.5467   -0.4494   14.7774 C   0  0  0  0  0  0  0  0  0  0  0  0
    2.1622    0.3813   13.7703 N   0  0  0  0  0  0  0  0  0  0  0  0
    3.0905    1.2361   13.2368 C   0  0  0  0  0  0  0  0  0  0  0  0
    4.3967    1.2828   13.6973 C   0  0  0  0  0  0  0  0  0  0  0  0
    4.7322    0.4976   14.7555 N   0  0  0  0  0  0  0  0  0  0  0  0
    5.8998    0.3887   15.4576 C   0  0  0  0  0  0  0  0  0  0  0  0
    5.6143   -0.5477   16.4779 C   0  0  0  0  0  0  0  0  0  0  0  0
    4.4157   -1.0782   16.3290 N   0  0  0  0  0  0  0  0  0  0  0  0
    3.8521   -0.4000   15.3224 C   0  0  0  0  0  0  0  0  0  0  0  0
    2.6115    2.1334   12.1178 C   0  0  0  0  0  0  0  0  0  0  0  0
    3.5406    2.6292   11.1800 C   0  0  0  0  0  0  0  0  0  0  0  0
    3.1477    3.4565   10.1243 C   0  0  0  0  0  0  0  0  0  0  0  0
    1.8039    3.8086   10.0214 C   0  0  0  0  0  0  0  0  0  0  0  0
    1.0010    4.6077    9.1343 C   0  0  0  0  0  0  0  0  0  0  0  0
   -0.2411    4.6153    9.5215 N   0  0  0  0  0  0  0  0  0  0  0  0
   -0.3421    3.8665   10.6189 N   0  0  0  0  0  0  0  0  0  0  0  0
    0.8809    3.3298   10.9772 C   0  0  0  0  0  0  0  0  0  0  0  0
    1.2478    2.4836   12.0372 C   0  0  0  0  0  0  0  0  0  0  0  0
   -0.4905   -0.8517   14.2206 C   0  0  0  0  0  0  0  0  0  0  0  0
   -1.8442   -1.1028   14.0951 C   0  0  0  0  0  0  0  0  0  0  0  0
   -5.4655   -2.2112   11.7306 H   0  0  0  0  0  0  0  0  0  0  0  0
   -3.8535   -2.8315   11.7616 H   0  0  0  0  0  0  0  0  0  0  0  0
   -5.6106   -4.5931   11.6807 H   0  0  0  0  0  0  0  0  0  0  0  0
   -6.3420   -4.0330   13.1669 H   0  0  0  0  0  0  0  0  0  0  0  0
   -3.4412   -5.3258   15.0901 H   0  0  0  0  0  0  0  0  0  0  0  0
   -5.1781   -5.4795   15.1894 H   0  0  0  0  0  0  0  0  0  0  0  0
   -4.1424   -3.5352   16.4845 H   0  0  0  0  0  0  0  0  0  0  0  0
   -5.5391   -3.2263   15.6236 H   0  0  0  0  0  0  0  0  0  0  0  0
   -4.1926   -0.9915   13.1890 H   0  0  0  0  0  0  0  0  0  0  0  0
   -5.5588   -1.6067   13.9319 H   0  0  0  0  0  0  0  0  0  0  0  0
   -2.1452   -3.6541   16.3212 H   0  0  0  0  0  0  0  0  0  0  0  0
    0.2418   -3.2285   16.5309 H   0  0  0  0  0  0  0  0  0  0  0  0
    2.0461   -1.9727   16.0611 H   0  0  0  0  0  0  0  0  0  0  0  0
    5.1489    1.9535   13.3193 H   0  0  0  0  0  0  0  0  0  0  0  0
    6.7638    0.9944   15.2597 H   0  0  0  0  0  0  0  0  0  0  0  0
    6.2642   -0.8294   17.2788 H   0  0  0  0  0  0  0  0  0  0  0  0
    4.5777    2.3521   11.2618 H   0  0  0  0  0  0  0  0  0  0  0  0
    3.8741    3.8108    9.4106 H   0  0  0  0  0  0  0  0  0  0  0  0
    1.3139    5.1535    8.2666 H   0  0  0  0  0  0  0  0  0  0  0  0
   -1.2254    3.7567   11.0774 H   0  0  0  0  0  0  0  0  0  0  0  0
    0.5353    2.1303   12.7513 H   0  0  0  0  0  0  0  0  0  0  0  0
   -0.0514   -0.0690   13.6498 H   0  0  0  0  0  0  0  0  0  0  0  0
   -2.4203   -0.4773   13.4210 H   0  0  0  0  0  0  0  0  0  0  0  0
  1  2  1  0
  1  7  1  0
  1 33  1  0
  1 34  1  0
  2  3  1  0
  2 35  1  0
  2 36  1  0
  3  4  1  0
  4  5  1  0
  4 37  1  0
  4 38  1  0
  5  6  1  0
  5 39  1  0
  5 40  1  0
  6  7  1  0
  6  8  1  0
  7 41  1  0
  7 42  1  0
  8  9  2  0
  8 32  1  0
  9 10  1  0
  9 43  1  0
 10 11  2  0
 10 44  1  0
 11 12  1  0
 11 31  1  0
 12 13  1  0
 12 45  1  0
 13 14  2  0
 13 21  1  0
 14 15  1  0
 15 16  2  0
 15 22  1  0
 16 17  1  0
 16 46  1  0
 17 18  1  0
 17 21  1  0
 18 19  2  0
 18 47  1  0
 19 20  1  0
 19 48  1  0
 20 21  2  0
 22 23  2  0
 22 30  1  0
 23 24  1  0
 23 49  1  0
 24 25  2  0
 24 50  1  0
 25 26  1  0
 25 29  1  0
 26 27  2  0
 26 51  1  0
 27 28  1  0
 28 29  1  0
 28 52  1  0
 29 30  2  0
 30 53  1  0
 31 32  2  0
 31 54  1  0
 32 55  1  0
M  END
>  <IC50[nM]>  (8) 
23.100000000000001

>  <atom.dprop.PartialCharge>  (8) 
-0.11993383 0.12288518 -0.41343752 0.09880799 0.20297724 -0.7090834 0.22398067 0.15897547 -0.1548366 -0.10827198 0.100997806 -0.69192314 0.60939485 -0.6211476 0.15602171 -0.1172467 -0.06528539 -0.28896472 0.32730505 -0.62511003 0.26607883 -0.04211466 -0.13253027 -0.05956632 -0.20970163 0.34949946 -0.4040675 -0.39940235 0.080408394 -0.117914915 -0.10827198 -0.1548366 0.05972691 0.05972691 0.041078117 0.041078117 0.0504924 0.0504924 0.05420847 0.05420847 0.0411615 0.0411615 0.1391157 0.13659675 0.44233954 0.17650583 0.18104474 0.050824888 0.1369847 0.13864157 0.05622892 0.47563776 0.14334685 0.13659675 0.1391157

>  <experimental dG reference units>  (8) 
nM

>  <experimental dG reference field>  (8) 
IC50[nM]

>  <kJ/mol experimental dG>  (8) 
-43.85929579422179

>  <kcal/mol experimental dG>  (8) 
-10.482623277777673

>  <AmberAM1BCCCache>  (8) 
gASVcAQAAAAAAABdlCiMFm51bXB5Ll9jb3JlLm11bHRpYXJyYXmUjAZzY2FsYXKUk5SMBW51bXB5lIwFZHR5cGWUk5SMAmY4lImIh5RSlChLA4wBPJROTk5K/////0r/////SwB0lGJDCA4Cbx79dvq/lIaUUpRoA2gJQwhy2NxUXwr4P5SGlFKUaANoCUMIQ0MDa6/HE8CUhpRSlGgDaAlDCBXwcAr5GPc/lIaUUpRoA2gJQwheqt6YXPb9P5SGlFKUaANoCUMIgcwbupukHsCUhpRSlGgDaAlDCMwEq3zwLwJAlIaUUpRoA2gJQwhp2zPY0/b5P5SGlFKUaANoCUMIEkZm7trg/b+UhpRSlGgDaAlDCK9AuwwF4vO/lIaUUpRoA2gJQwgxsGg6O3rxP5SGlFKUaANoCUMIWSD7FfiTIMCUhpRSlGgDaAlDCIze2C5ZpiBAlIaUUpRoA2gJQwiatCNGPk0hwJSGlFKUaANoCUMIf0stxF9+FUCUhpRSlGgDaAlDCI5TzioULAXAlIaUUpRoA2gJQwh+a+KSICLgP5SGlFKUaANoCUMIv24FIngWBMCUhpRSlGgDaAlDCHOkMJJzHaq/lIaUUpRoA2gJQwgYMHCaLZYGwJSGlFKUaANoCUMIrsJsM4C9AMCUhpRSlGgDaAlDCN9ORxMuUfO/lIaUUpRoA2gJQwjw7TQR6y73v5SGlFKUaANoCUMIjtobDpv/6b+UhpRSlGgDaAlDCIjo1YiFUAPAlIaUUpRoA2gJQwifx3a9BosQQJSGlFKUaANoCUMIGlcXmRYYGMCUhpRSlGgDaAlDCEvi8yiasMm/lIaUUpRoA2gJQwhCgVK0/27nv5SGlFKUaANoCUMI1syYrOCA+L+UhpRSlGgDaAlDCK9AuwwF4vO/lIaUUpRoA2gJQwgSRmbu2uD9v5SGlFKUaANoCUMIRMFRRDTs5j+UhpRSlGgDaAlDCETBUUQ07OY/lIaUUpRoA2gJQwg2PLon7QTiP5SGlFKUaANoCUMINjy6J+0E4j+UhpRSlGgDaAlDCKTdaVGGyuU/lIaUUpRoA2gJQwik3WlRhsrlP5SGlFKUaANoCUMIezc20DQ14j+UhpRSlGgDaAlDCHs3NtA0NeI/lIaUUpRoA2gJQwjXH6IamybjP5SGlFKUaANoCUMI1x+iGpsm4z+UhpRSlGgDaAlDCARHeDi4wfk/lIaUUpRoA2gJQwjsPzK1Iwr6P5SGlFKUaANoCUMIgmWDpdV0FECUhpRSlGgDaAlDCHrIjoc/ggBAlIaUUpRoA2gJQwh6rjimyYsBQJSGlFKUaANoCUMINbO8/YFbAUCUhpRSlGgDaAlDCHMCfkPHffw/lIaUUpRoA2gJQwgBLSJXQsv6P5SGlFKUaANoCUMIWhnx7p5z5T+UhpRSlGgDaAlDCCgaWNJ1lg1AlIaUUpRoA2gJQwgBLSJXQsv6P5SGlFKUaANoCUMI7D8ytSMK+j+UhpRSlGgDaAlDCARHeDi4wfk/lIaUUpRlLg==

$$$$
CHEMBL3265033
     RDKit          3D

 54 59  0  0  0  0  0  0  0  0999 V2000
   -6.7377   -5.5954   13.7078 O   0  0  0  0  0  0  0  0  0  0  0  0
   -6.4109   -4.1827   13.9768 S   0  0  0  0  0  6  0  0  0  0  0  0
   -7.4853   -3.1691   13.9645 O   0  0  0  0  0  0  0  0  0  0  0  0
   -5.0718   -3.6553   12.8024 C   0  0  0  0  0  0  0  0  0  0  0  0
   -4.5093   -2.3051   13.2740 C   0  0  0  0  0  0  0  0  0  0  0  0
   -3.8452   -2.4085   14.5766 N   0  0  0  0  0  0  0  0  0  0  0  0
   -4.8019   -2.6733   15.6705 C   0  0  0  0  0  0  0  0  0  0  0  0
   -5.4613   -4.0603   15.5733 C   0  0  0  0  0  0  0  0  0  0  0  0
   -2.5026   -2.1121   14.7721 C   0  0  0  0  0  0  0  0  0  0  0  0
   -1.7498   -2.8472   15.6821 C   0  0  0  0  0  0  0  0  0  0  0  0
   -0.3947   -2.5947   15.8318 C   0  0  0  0  0  0  0  0  0  0  0  0
    0.2287   -1.5788   15.1039 C   0  0  0  0  0  0  0  0  0  0  0  0
    1.6093   -1.3648   15.3339 N   0  0  0  0  0  0  0  0  0  0  0  0
    2.5318   -0.4383   14.7801 C   0  0  0  0  0  0  0  0  0  0  0  0
    2.1634    0.3921   13.7540 N   0  0  0  0  0  0  0  0  0  0  0  0
    3.0974    1.2392   13.2246 C   0  0  0  0  0  0  0  0  0  0  0  0
    4.4044    1.2817   13.6944 C   0  0  0  0  0  0  0  0  0  0  0  0
    4.7423    0.4925   14.7592 N   0  0  0  0  0  0  0  0  0  0  0  0
    5.8954    0.3870   15.4778 C   0  0  0  0  0  0  0  0  0  0  0  0
    5.5990   -0.5412   16.5094 C   0  0  0  0  0  0  0  0  0  0  0  0
    4.3871   -1.0534   16.3565 N   0  0  0  0  0  0  0  0  0  0  0  0
    3.8359   -0.3945   15.3234 C   0  0  0  0  0  0  0  0  0  0  0  0
    2.6253    2.1534   12.1201 C   0  0  0  0  0  0  0  0  0  0  0  0
    3.5412    2.6427   11.1681 C   0  0  0  0  0  0  0  0  0  0  0  0
    3.1527    3.4644   10.1100 C   0  0  0  0  0  0  0  0  0  0  0  0
    1.8061    3.8184   10.0146 C   0  0  0  0  0  0  0  0  0  0  0  0
    0.9967    4.6031    9.1196 C   0  0  0  0  0  0  0  0  0  0  0  0
   -0.2439    4.6096    9.5190 N   0  0  0  0  0  0  0  0  0  0  0  0
   -0.3333    3.8812   10.6311 N   0  0  0  0  0  0  0  0  0  0  0  0
    0.8847    3.3487   10.9898 C   0  0  0  0  0  0  0  0  0  0  0  0
    1.2610    2.5149   12.0531 C   0  0  0  0  0  0  0  0  0  0  0  0
   -0.5302   -0.8124   14.2060 C   0  0  0  0  0  0  0  0  0  0  0  0
   -1.8875   -1.0872   14.0350 C   0  0  0  0  0  0  0  0  0  0  0  0
   -4.2870   -4.4115   12.7932 H   0  0  0  0  0  0  0  0  0  0  0  0
   -5.5077   -3.5615   11.8091 H   0  0  0  0  0  0  0  0  0  0  0  0
   -3.7877   -1.9706   12.5239 H   0  0  0  0  0  0  0  0  0  0  0  0
   -5.3210   -1.5976   13.2696 H   0  0  0  0  0  0  0  0  0  0  0  0
   -4.3225   -2.5661   16.6462 H   0  0  0  0  0  0  0  0  0  0  0  0
   -5.5749   -1.8980   15.6876 H   0  0  0  0  0  0  0  0  0  0  0  0
   -4.6888   -4.8310   15.5950 H   0  0  0  0  0  0  0  0  0  0  0  0
   -6.1589   -4.2289   16.3924 H   0  0  0  0  0  0  0  0  0  0  0  0
   -2.2114   -3.6432   16.2513 H   0  0  0  0  0  0  0  0  0  0  0  0
    0.1860   -3.1935   16.5202 H   0  0  0  0  0  0  0  0  0  0  0  0
    2.0087   -1.9701   16.0399 H   0  0  0  0  0  0  0  0  0  0  0  0
    5.1653    1.9492   13.3186 H   0  0  0  0  0  0  0  0  0  0  0  0
    6.7769    0.9748   15.2739 H   0  0  0  0  0  0  0  0  0  0  0  0
    6.2430   -0.8293   17.3244 H   0  0  0  0  0  0  0  0  0  0  0  0
    4.5805    2.3555   11.2394 H   0  0  0  0  0  0  0  0  0  0  0  0
    3.8720    3.8097    9.3836 H   0  0  0  0  0  0  0  0  0  0  0  0
    1.3028    5.1343    8.2328 H   0  0  0  0  0  0  0  0  0  0  0  0
   -1.2191    3.7739   11.0972 H   0  0  0  0  0  0  0  0  0  0  0  0
    0.5545    2.1699   12.7872 H   0  0  0  0  0  0  0  0  0  0  0  0
   -0.0886   -0.0159   13.6433 H   0  0  0  0  0  0  0  0  0  0  0  0
   -2.4699   -0.4961   13.3471 H   0  0  0  0  0  0  0  0  0  0  0  0
  1  2  2  0
  2  3  2  0
  2  4  1  0
  2  8  1  0
  4  5  1  0
  4 34  1  0
  4 35  1  0
  5  6  1  0
  5 36  1  0
  5 37  1  0
  6  7  1  0
  6  9  1  0
  7  8  1  0
  7 38  1  0
  7 39  1  0
  8 40  1  0
  8 41  1  0
  9 10  2  0
  9 33  1  0
 10 11  1  0
 10 42  1  0
 11 12  2  0
 11 43  1  0
 12 13  1  0
 12 32  1  0
 13 14  1  0
 13 44  1  0
 14 15  2  0
 14 22  1  0
 15 16  1  0
 16 17  2  0
 16 23  1  0
 17 18  1  0
 17 45  1  0
 18 19  1  0
 18 22  1  0
 19 20  2  0
 19 46  1  0
 20 21  1  0
 20 47  1  0
 21 22  2  0
 23 24  2  0
 23 31  1  0
 24 25  1  0
 24 48  1  0
 25 26  2  0
 25 49  1  0
 26 27  1  0
 26 30  1  0
 27 28  2  0
 27 50  1  0
 28 29  1  0
 29 30  1  0
 29 51  1  0
 30 31  2  0
 31 52  1  0
 32 33  2  0
 32 53  1  0
 33 54  1  0
M  END
>  <IC50[nM]>  (9) 
2.1000000000000001

>  <atom.dprop.PartialCharge>  (9) 
-0.6469248 1.3309273 -0.6469248 -0.33961493 0.255585 -0.7001349 0.255585 -0.33961493 0.115217224 -0.12507129 -0.12224986 0.1206928 -0.6926744 0.6109427 -0.6206775 0.15649167 -0.11677666 -0.064815365 -0.28849465 0.327775 -0.6246398 0.26654884 -0.041644648 -0.13206026 -0.059096318 -0.20923157 0.34996945 -0.40359735 -0.39893222 0.08087837 -0.11744489 -0.12224986 -0.12507129 0.12627591 0.12627591 0.050312094 0.050312094 0.050312094 0.050312094 0.12627591 0.12627591 0.13675794 0.14044407 0.4435969 0.17697588 0.18151478 0.051294908 0.13745475 0.13911161 0.05669894 0.47610778 0.1438169 0.14044407 0.13675794

>  <experimental dG reference units>  (9) 
nM

>  <experimental dG reference field>  (9) 
IC50[nM]

>  <kJ/mol experimental dG>  (9) 
-49.84049393344997

>  <kcal/mol experimental dG>  (9) 
-11.912163942029151

>  <AmberAM1BCCCache>  (9) 
gASVXQQAAAAAAABdlCiMFm51bXB5Ll9jb3JlLm11bHRpYXJyYXmUjAZzY2FsYXKUk5SMBW51bXB5lIwFZHR5cGWUk5SMAmY4lImIh5RSlChLA4wBPJROTk5K/////0r/////SwB0lGJDCAQJDBGXnB7AlIaUUpRoA2gJQwiPxcGOnkIvQJSGlFKUaANoCUMIBAkMEZecHsCUhpRSlGgDaAlDCI6oIWifFBDAlIaUUpRoA2gJQwidpIgzxFcFQJSGlFKUaANoCUMIoFL51S29HsCUhpRSlGgDaAlDCJ2kiDPEVwVAlIaUUpRoA2gJQwiOqCFonxQQwJSGlFKUaANoCUMIRd/Vdd1y+D+UhpRSlGgDaAlDCFF9tpZRCf2/lIaUUpRoA2gJQwjUVm9QcVz0v5SGlFKUaANoCUMINlo+WZaL8z+UhpRSlGgDaAlDCGjj6SNBoCDAlIaUUpRoA2gJQwgUnNorB5QgQJSGlFKUaANoCUMIzfuloEgvIcCUhpRSlGgDaAlDCC/EbpLfcRVAlIaUUpRoA2gJQwj/bRVpYcwEwJSGlFKUaANoCUMIkCfmVa4e4D+UhpRSlGgDaAlDCHWEyAgN5wPAlIaUUpRoA2gJQwioenVSokukv5SGlFKUaANoCUMI/DlppnXfBsCUhpRSlGgDaAlDCKrTq8JcvgDAlIaUUpRoA2gJQwhhZ72CdrPzv5SGlFKUaANoCUMI5g+zL6Qw97+UhpRSlGgDaAlDCPEnIPp9oum/lIaUUpRoA2gJQwji+9ZDPjkDwJSGlFKUaANoCUMIIT/XdZiKEECUhpRSlGgDaAlDCMXgl/ZyDBjAlIaUUpRoA2gJQwgE8uQcY77Jv5SGlFKUaANoCUMIMcVO8XFy57+UhpRSlGgDaAlDCM3uFsuZgvi/lIaUUpRoA2gJQwjUVm9QcVz0v5SGlFKUaANoCUMIUX22llEJ/b+UhpRSlGgDaAlDCNt0civnm/g/lIaUUpRoA2gJQwjbdHIr55v4P5SGlFKUaANoCUMIWJer6Dff5T+UhpRSlGgDaAlDCFiXq+g33+U/lIaUUpRoA2gJQwhYl6voN9/lP5SGlFKUaANoCUMIWJer6Dff5T+UhpRSlGgDaAlDCNt0civnm/g/lIaUUpRoA2gJQwjbdHIr55v4P5SGlFKUaANoCUMIryI47iLY+T+UhpRSlGgDaAlDCMQPKJBBmfo/lIaUUpRoA2gJQwjV2wJIeYAUQJSGlFKUaANoCUMII7WNzIaZAECUhpRSlGgDaAlDCMSYdb80uwFAlIaUUpRoA2gJQwjan7tCyXIBQJSGlFKUaANoCUMIe+D/JA58/D+UhpRSlGgDaAlDCE8GIOHQ+fo/lIaUUpRoA2gJQwhr1fSxLHDlP5SGlFKUaANoCUMIzgZXF72tDUCUhpRSlGgDaAlDCMQPKJBBmfo/lIaUUpRoA2gJQwjEDyiQQZn6P5SGlFKUaANoCUMIryI47iLY+T+UhpRSlGUu

$$$$
CHEMBL3265032
     RDKit          3D

 52 57  0  0  0  0  0  0  0  0999 V2000
   -5.2528   -4.0279   13.4883 C   0  0  0  0  0  0  0  0  0  0  0  0
   -4.5590   -2.6369   13.4544 C   0  0  0  0  0  0  0  0  0  0  0  0
   -3.8919   -2.2470   14.7137 N   0  0  0  0  0  0  0  0  0  0  0  0
   -4.7198   -2.6287   15.8665 C   0  0  0  0  0  0  0  0  0  0  0  0
   -5.4261   -3.9885   15.8402 C   0  0  0  0  0  0  0  0  0  0  0  0
   -6.1177   -4.1508   14.6092 O   0  0  0  0  0  0  0  0  0  0  0  0
   -2.5101   -2.0763   14.8035 C   0  0  0  0  0  0  0  0  0  0  0  0
   -1.8815   -1.1097   14.0182 C   0  0  0  0  0  0  0  0  0  0  0  0
   -0.5196   -0.8466   14.1763 C   0  0  0  0  0  0  0  0  0  0  0  0
    0.2358   -1.5888   15.0999 C   0  0  0  0  0  0  0  0  0  0  0  0
    1.6095   -1.3595   15.3505 N   0  0  0  0  0  0  0  0  0  0  0  0
    2.5288   -0.4326   14.7915 C   0  0  0  0  0  0  0  0  0  0  0  0
    2.1515    0.4038   13.7773 N   0  0  0  0  0  0  0  0  0  0  0  0
    3.0856    1.2408   13.2315 C   0  0  0  0  0  0  0  0  0  0  0  0
    4.3919    1.2835   13.6955 C   0  0  0  0  0  0  0  0  0  0  0  0
    4.7346    0.4998   14.7545 N   0  0  0  0  0  0  0  0  0  0  0  0
    5.8922    0.3978   15.4788 C   0  0  0  0  0  0  0  0  0  0  0  0
    5.6049   -0.5481   16.4962 C   0  0  0  0  0  0  0  0  0  0  0  0
    4.3940   -1.0599   16.3510 N   0  0  0  0  0  0  0  0  0  0  0  0
    3.8344   -0.3880   15.3306 C   0  0  0  0  0  0  0  0  0  0  0  0
    2.6174    2.1451   12.1221 C   0  0  0  0  0  0  0  0  0  0  0  0
    3.5375    2.6360   11.1692 C   0  0  0  0  0  0  0  0  0  0  0  0
    3.1548    3.4584   10.1087 C   0  0  0  0  0  0  0  0  0  0  0  0
    1.8089    3.8176   10.0151 C   0  0  0  0  0  0  0  0  0  0  0  0
    0.9999    4.6108    9.1243 C   0  0  0  0  0  0  0  0  0  0  0  0
   -0.2405    4.6150    9.5301 N   0  0  0  0  0  0  0  0  0  0  0  0
   -0.3274    3.8782   10.6339 N   0  0  0  0  0  0  0  0  0  0  0  0
    0.8831    3.3398   10.9927 C   0  0  0  0  0  0  0  0  0  0  0  0
    1.2567    2.5006   12.0460 C   0  0  0  0  0  0  0  0  0  0  0  0
   -0.3865   -2.5955   15.8355 C   0  0  0  0  0  0  0  0  0  0  0  0
   -1.7498   -2.8337   15.7040 C   0  0  0  0  0  0  0  0  0  0  0  0
   -4.5051   -4.8201   13.5326 H   0  0  0  0  0  0  0  0  0  0  0  0
   -5.8382   -4.1961   12.5835 H   0  0  0  0  0  0  0  0  0  0  0  0
   -3.8574   -2.6184   12.6184 H   0  0  0  0  0  0  0  0  0  0  0  0
   -5.3171   -1.8948   13.2323 H   0  0  0  0  0  0  0  0  0  0  0  0
   -4.1680   -2.4954   16.7966 H   0  0  0  0  0  0  0  0  0  0  0  0
   -5.4757   -1.8452   15.9095 H   0  0  0  0  0  0  0  0  0  0  0  0
   -4.6783   -4.7685   15.9759 H   0  0  0  0  0  0  0  0  0  0  0  0
   -6.1259   -4.0493   16.6787 H   0  0  0  0  0  0  0  0  0  0  0  0
   -2.4632   -0.5270   13.3256 H   0  0  0  0  0  0  0  0  0  0  0  0
   -0.0772   -0.0608   13.5996 H   0  0  0  0  0  0  0  0  0  0  0  0
    2.0056   -1.9485   16.0686 H   0  0  0  0  0  0  0  0  0  0  0  0
    5.1492    1.9467   13.3043 H   0  0  0  0  0  0  0  0  0  0  0  0
    6.7687    0.9973   15.2711 H   0  0  0  0  0  0  0  0  0  0  0  0
    6.2551   -0.8495   17.2990 H   0  0  0  0  0  0  0  0  0  0  0  0
    4.5745    2.3502   11.2465 H   0  0  0  0  0  0  0  0  0  0  0  0
    3.8814    3.8031    9.3814 H   0  0  0  0  0  0  0  0  0  0  0  0
    1.3048    5.1494    8.2407 H   0  0  0  0  0  0  0  0  0  0  0  0
   -1.2122    3.7667   11.1066 H   0  0  0  0  0  0  0  0  0  0  0  0
    0.5434    2.1468   12.7781 H   0  0  0  0  0  0  0  0  0  0  0  0
    0.1974   -3.1804   16.5382 H   0  0  0  0  0  0  0  0  0  0  0  0
   -2.2129   -3.6048   16.3012 H   0  0  0  0  0  0  0  0  0  0  0  0
  1  2  1  0
  1  6  1  0
  1 32  1  0
  1 33  1  0
  2  3  1  0
  2 34  1  0
  2 35  1  0
  3  4  1  0
  3  7  1  0
  4  5  1  0
  4 36  1  0
  4 37  1  0
  5  6  1  0
  5 38  1  0
  5 39  1  0
  7  8  2  0
  7 31  1  0
  8  9  1  0
  8 40  1  0
  9 10  2  0
  9 41  1  0
 10 11  1  0
 10 30  1  0
 11 12  1  0
 11 42  1  0
 12 13  2  0
 12 20  1  0
 13 14  1  0
 14 15  2  0
 14 21  1  0
 15 16  1  0
 15 43  1  0
 16 17  1  0
 16 20  1  0
 17 18  2  0
 17 44  1  0
 18 19  1  0
 18 45  1  0
 19 20  2  0
 21 22  2  0
 21 29  1  0
 22 23  1  0
 22 46  1  0
 23 24  2  0
 23 47  1  0
 24 25  1  0
 24 28  1  0
 25 26  2  0
 25 48  1  0
 26 27  1  0
 27 28  1  0
 27 49  1  0
 28 29  2  0
 29 50  1  0
 30 31  2  0
 30 51  1  0
 31 52  1  0
M  END
>  <IC50[nM]>  (10) 
7.7000000000000002

>  <atom.dprop.PartialCharge>  (10) 
0.11881013 0.18852639 -0.70750266 0.18852639 0.11881013 -0.41294053 0.113523565 -0.12866297 -0.122351214 0.120260164 -0.69310725 0.6105101 -0.6211102 0.15605909 -0.11720933 -0.06524802 -0.28892735 0.32734242 -0.62507266 0.2661162 -0.04207729 -0.1324929 -0.05952895 -0.20966426 0.34953684 -0.40403008 -0.39936498 0.08044576 -0.11787755 -0.122351214 -0.12866297 0.05596862 0.05596862 0.044996142 0.044996142 0.044996142 0.044996142 0.05596862 0.05596862 0.13657716 0.1400114 0.44316423 0.1765432 0.18108211 0.050862253 0.13702208 0.13867894 0.056266293 0.47567514 0.14338422 0.1400114 0.13657716

>  <experimental dG reference units>  (10) 
nM

>  <experimental dG reference field>  (10) 
IC50[nM]

>  <kJ/mol experimental dG>  (10) 
-46.59962305173644

>  <kcal/mol experimental dG>  (10) 
-11.137577211218078

>  <AmberAM1BCCCache>  (10) 
gASVNwQAAAAAAABdlCiMFm51bXB5Ll9jb3JlLm11bHRpYXJyYXmUjAZzY2FsYXKUk5SMBW51bXB5lIwFZHR5cGWUk5SMAmY4lImIh5RSlChLA4wBPJROTk5K/////0r/////SwB0lGJDCELq1cf2OvY/lIaUUpRoA2gJQwjPn7/+oUj9P5SGlFKUaANoCUMISCDinQYhHsCUhpRSlGgDaAlDCM+fv/6hSP0/lIaUUpRoA2gJQwhC6tXH9jr2P5SGlFKUaANoCUMIrIdcMgPhE8CUhpRSlGgDaAlDCGSttq0ys/o/lIaUUpRoA2gJQwiJST8FAdf+v5SGlFKUaANoCUMIbnO8jl718r+UhpRSlGgDaAlDCEajh3Sk5PA/lIaUUpRoA2gJQwi8w4gPkJQgwJSGlFKUaANoCUMIKDtLNcGlIECUhpRSlGgDaAlDCP1XsT/WTSHAlIaUUpRoA2gJQwi5BBLRL30VQJSGlFKUaANoCUMIHOEEEXQuBcCUhpRSlGgDaAlDCNQrAEsweeA/lIaUUpRoA2gJQwir/v0ztAAEwJSGlFKUaANoCUMIzgfUH221qr+UhpRSlGgDaAlDCEm75FSxsAbAlIaUUpRoA2gJQwg8UKMZ4L8AwJSGlFKUaANoCUMI+mm03+1V87+UhpRSlGgDaAlDCAoJot2qM/e/lIaUUpRoA2gJQwjEEPamGgnqv5SGlFKUaANoCUMIFnYMb+VSA8CUhpRSlGgDaAlDCNmAW8rWiRBAlIaUUpRoA2gJQwjgnTKMRhkYwJSGlFKUaANoCUMIIbtcjJjWyb+UhpRSlGgDaAlDCHi3LE1/eOe/lIaUUpRoA2gJQwjx5wV5oIX4v5SGlFKUaANoCUMIbnO8jl718r+UhpRSlGgDaAlDCIlJPwUB1/6/lIaUUpRoA2gJQwjkyu1I7VbkP5SGlFKUaANoCUMI5MrtSO1W5D+UhpRSlGgDaAlDCEi+jV+s1+Q/lIaUUpRoA2gJQwhIvo1frNfkP5SGlFKUaANoCUMISL6NX6zX5D+UhpRSlGgDaAlDCEi+jV+s1+Q/lIaUUpRoA2gJQwjkyu1I7VbkP5SGlFKUaANoCUMI5MrtSO1W5D+UhpRSlGgDaAlDCKMwj8OwjPk/lIaUUpRoA2gJQwgWIEGRqzX6P5SGlFKUaANoCUMIux5osqVzFECUhpRSlGgDaAlDCO06WKHffwBAlIaUUpRoA2gJQwiOHkCUjaEBQJSGlFKUaANoCUMIpyWGFyJZAUCUhpRSlGgDaAlDCFfnEHcHefw/lIaUUpRoA2gJQwjlEbWKgsb6P5SGlFKUaANoCUMIJOMWVh9q5T+UhpRSlGgDaAlDCD6KX8A5rA1AlIaUUpRoA2gJQwjlEbWKgsb6P5SGlFKUaANoCUMIFiBBkas1+j+UhpRSlGgDaAlDCKMwj8OwjPk/lIaUUpRlLg==

$$$$
CHEMBL3265034
     RDKit          3D

 53 58  0  0  0  0  0  0  0  0999 V2000
   -5.7484   -4.1352   14.0916 C   0  0  0  0  0  0  0  0  0  0  0  0
   -4.2467   -3.7965   14.1043 C   0  0  0  0  0  0  0  0  0  0  0  0
   -4.0046   -2.3867   14.6667 C   0  0  0  0  0  0  0  0  0  0  0  0
   -4.7211   -2.2350   16.0203 C   0  0  0  0  0  0  0  0  0  0  0  0
   -6.1989   -2.6529   15.9141 C   0  0  0  0  0  0  0  0  0  0  0  0
   -6.2949   -3.9790   15.3990 O   0  0  0  0  0  0  0  0  0  0  0  0
   -2.5163   -2.1019   14.8026 C   0  0  0  0  0  0  0  0  0  0  0  0
   -1.7444   -2.8650   15.6773 C   0  0  0  0  0  0  0  0  0  0  0  0
   -0.3947   -2.6068   15.8182 C   0  0  0  0  0  0  0  0  0  0  0  0
    0.2168   -1.5789   15.0929 C   0  0  0  0  0  0  0  0  0  0  0  0
    1.5959   -1.3413   15.3408 N   0  0  0  0  0  0  0  0  0  0  0  0
    2.5346   -0.4433   14.7633 C   0  0  0  0  0  0  0  0  0  0  0  0
    2.1825    0.3683   13.7202 N   0  0  0  0  0  0  0  0  0  0  0  0
    3.1144    1.2372   13.2163 C   0  0  0  0  0  0  0  0  0  0  0  0
    4.4190    1.2837   13.7018 C   0  0  0  0  0  0  0  0  0  0  0  0
    4.7465    0.4877   14.7594 N   0  0  0  0  0  0  0  0  0  0  0  0
    5.8977    0.3771   15.4862 C   0  0  0  0  0  0  0  0  0  0  0  0
    5.5879   -0.5237   16.5292 C   0  0  0  0  0  0  0  0  0  0  0  0
    4.3754   -1.0416   16.3746 N   0  0  0  0  0  0  0  0  0  0  0  0
    3.8361   -0.3925   15.3266 C   0  0  0  0  0  0  0  0  0  0  0  0
    2.6384    2.1617   12.1197 C   0  0  0  0  0  0  0  0  0  0  0  0
    3.5461    2.6405   11.1618 C   0  0  0  0  0  0  0  0  0  0  0  0
    3.1445    3.4623   10.1105 C   0  0  0  0  0  0  0  0  0  0  0  0
    1.7985    3.8158   10.0184 C   0  0  0  0  0  0  0  0  0  0  0  0
    0.9907    4.5934    9.1205 C   0  0  0  0  0  0  0  0  0  0  0  0
   -0.2502    4.6054    9.5128 N   0  0  0  0  0  0  0  0  0  0  0  0
   -0.3377    3.8946   10.6262 N   0  0  0  0  0  0  0  0  0  0  0  0
    0.8856    3.3616   10.9945 C   0  0  0  0  0  0  0  0  0  0  0  0
    1.2735    2.5429   12.0624 C   0  0  0  0  0  0  0  0  0  0  0  0
   -0.5534   -0.8155   14.1947 C   0  0  0  0  0  0  0  0  0  0  0  0
   -1.9224   -1.0793   14.0569 C   0  0  0  0  0  0  0  0  0  0  0  0
   -6.2805   -3.4837   13.3942 H   0  0  0  0  0  0  0  0  0  0  0  0
   -5.9038   -5.1578   13.7553 H   0  0  0  0  0  0  0  0  0  0  0  0
   -3.8408   -3.8755   13.0976 H   0  0  0  0  0  0  0  0  0  0  0  0
   -3.7264   -4.5315   14.7202 H   0  0  0  0  0  0  0  0  0  0  0  0
   -4.4085   -1.6510   13.9680 H   0  0  0  0  0  0  0  0  0  0  0  0
   -4.6501   -1.2085   16.3760 H   0  0  0  0  0  0  0  0  0  0  0  0
   -4.2346   -2.8646   16.7675 H   0  0  0  0  0  0  0  0  0  0  0  0
   -6.7408   -1.9682   15.2574 H   0  0  0  0  0  0  0  0  0  0  0  0
   -6.6781   -2.6070   16.8893 H   0  0  0  0  0  0  0  0  0  0  0  0
   -2.1988   -3.6577   16.2587 H   0  0  0  0  0  0  0  0  0  0  0  0
    0.1892   -3.2031   16.5076 H   0  0  0  0  0  0  0  0  0  0  0  0
    1.9651   -1.8647   16.1167 H   0  0  0  0  0  0  0  0  0  0  0  0
    5.1809    1.9629   13.3422 H   0  0  0  0  0  0  0  0  0  0  0  0
    6.7856    0.9487   15.2757 H   0  0  0  0  0  0  0  0  0  0  0  0
    6.2292   -0.7937   17.3519 H   0  0  0  0  0  0  0  0  0  0  0  0
    4.5884    2.3469   11.2223 H   0  0  0  0  0  0  0  0  0  0  0  0
    3.8528    3.8060    9.3832 H   0  0  0  0  0  0  0  0  0  0  0  0
    1.3017    5.1139    8.2368 H   0  0  0  0  0  0  0  0  0  0  0  0
   -1.2272    3.7941   11.0903 H   0  0  0  0  0  0  0  0  0  0  0  0
    0.5743    2.2194   12.8032 H   0  0  0  0  0  0  0  0  0  0  0  0
   -0.1159   -0.0226   13.6276 H   0  0  0  0  0  0  0  0  0  0  0  0
   -2.5226   -0.4866   13.3791 H   0  0  0  0  0  0  0  0  0  0  0  0
  1  2  1  0
  1  6  1  0
  1 32  1  0
  1 33  1  0
  2  3  1  0
  2 34  1  0
  2 35  1  0
  3  4  1  0
  3  7  1  0
  3 36  1  0
  4  5  1  0
  4 37  1  0
  4 38  1  0
  5  6  1  0
  5 39  1  0
  5 40  1  0
  7  8  2  0
  7 31  1  0
  8  9  1  0
  8 41  1  0
  9 10  2  0
  9 42  1  0
 10 11  1  0
 10 30  1  0
 11 12  1  0
 11 43  1  0
 12 13  2  0
 12 20  1  0
 13 14  1  0
 14 15  2  0
 14 21  1  0
 15 16  1  0
 15 44  1  0
 16 17  1  0
 16 20  1  0
 17 18  2  0
 17 45  1  0
 18 19  1  0
 18 46  1  0
 19 20  2  0
 21 22  2  0
 21 29  1  0
 22 23  1  0
 22 47  1  0
 23 24  2  0
 23 48  1  0
 24 25  1  0
 24 28  1  0
 25 26  2  0
 25 49  1  0
 26 27  1  0
 27 28  1  0
 27 50  1  0
 28 29  2  0
 29 51  1  0
 30 31  2  0
 30 52  1  0
 31 53  1  0
M  END
>  <IC50[nM]>  (11) 
3.7999999999999998

>  <atom.dprop.PartialCharge>  (11) 
0.121267736 -0.11255154 -0.01755048 -0.11255154 0.121267736 -0.40471599 -0.08454036 -0.11173697 -0.12547936 0.12051901 -0.69829684 0.61185014 -0.6209716 0.15619761 -0.117070764 -0.06510946 -0.28878877 0.32748094 -0.624934 0.26625475 -0.04193874 -0.13235435 -0.059390403 -0.20952569 0.3496754 -0.4038915 -0.3992264 0.080584295 -0.11773899 -0.12547936 -0.11173697 0.051181845 0.051181845 0.055613626 0.055613626 0.05263898 0.055613626 0.055613626 0.051181845 0.051181845 0.13444902 0.1387446 0.44365165 0.17668177 0.18122068 0.05100081 0.13716063 0.1388175 0.056404844 0.4758137 0.14352278 0.1387446 0.13444902

>  <experimental dG reference units>  (11) 
nM

>  <experimental dG reference field>  (11) 
IC50[nM]

>  <kJ/mol experimental dG>  (11) 
-48.36118344365189

>  <kcal/mol experimental dG>  (11) 
-11.558600249438788

>  <AmberAM1BCCCache>  (11) 
gASVSgQAAAAAAABdlCiMFm51bXB5Ll9jb3JlLm11bHRpYXJyYXmUjAZzY2FsYXKUk5SMBW51bXB5lIwFZHR5cGWUk5SMAmY4lImIh5RSlChLA4wBPJROTk5K/////0r/////SwB0lGJDCL+A4sG55fc/lIaUUpRoA2gJQwiI+vFQHjL0v5SGlFKUaANoCUMIQ16RHMVTx7+UhpRSlGgDaAlDCIj68VAeMvS/lIaUUpRoA2gJQwi/gOLBueX3P5SGlFKUaANoCUMILj2ZWRyoE8CUhpRSlGgDaAlDCAU9UPndhfC/lIaUUpRoA2gJQwgRE0E9+zz0v5SGlFKUaANoCUMIfIBEpKgV+r+UhpRSlGgDaAlDCMIa3e/Q5vg/lIaUUpRoA2gJQwhu+AVz+LUgwJSGlFKUaANoCUMII+Uw+eyRIECUhpRSlGgDaAlDCDj0qG5MIiHAlIaUUpRoA2gJQwjcWb5udUkVQJSGlFKUaANoCUMIntLT10N6BMCUhpRSlGgDaAlDCDCSMbsgqN4/lIaUUpRoA2gJQwhx3p2ykAEEwJSGlFKUaANoCUMI136bMlujkb+UhpRSlGgDaAlDCMqfCCtGgQbAlIaUUpRoA2gJQwi9NMfvdJAAwJSGlFKUaANoCUMIzCRwhe6H87+UhpRSlGgDaAlDCPXKowZAHfe/lIaUUpRoA2gJQwj2lrskIcTpv5SGlFKUaANoCUMIOlhuGZ47A8CUhpRSlGgDaAlDCF4QG4BxjxBAlIaUUpRoA2gJQwjyjmPhog0YwJSGlFKUaANoCUMIjbdadmDkyb+UhpRSlGgDaAlDCJM2rEfxe+e/lIaUUpRoA2gJQwghpYNKfZ/4v5SGlFKUaANoCUMIfIBEpKgV+r+UhpRSlGgDaAlDCBETQT37PPS/lIaUUpRoA2gJQwisFd2lG2HhP5SGlFKUaANoCUMIrBXdpRth4T+UhpRSlGgDaAlDCD5Iywyxd+Q/lIaUUpRoA2gJQwg+SMsMsXfkP5SGlFKUaANoCUMIs0Qoy+ab5D+UhpRSlGgDaAlDCD5Iywyxd+Q/lIaUUpRoA2gJQwg+SMsMsXfkP5SGlFKUaANoCUMIrBXdpRth4T+UhpRSlGgDaAlDCKwV3aUbYeE/lIaUUpRoA2gJQwho9sMop1T5P5SGlFKUaANoCUMIiWABlPIz+j+UhpRSlGgDaAlDCF3tvtdNghRAlIaUUpRoA2gJQwjKWPb2JpcAQJSGlFKUaANoCUMIyD6gFbGgAUCUhpRSlGgDaAlDCCVBYkGNiAFAlIaUUpRoA2gJQwhtJQ9Oco/8P5SGlFKUaANoCUMInk3xNRH1+j+UhpRSlGgDaAlDCAlkl1utZuU/lIaUUpRoA2gJQwh2qr9BXasNQJSGlFKUaANoCUMIE1f55IGU+j+UhpRSlGgDaAlDCIlgAZTyM/o/lIaUUpRoA2gJQwho9sMop1T5P5SGlFKUZS4=

$$$$
CHEMBL3264995
     RDKit          3D

 60 64  0  0  0  0  0  0  0  0999 V2000
   -4.2563   -3.1062   13.5664 C   0  0  0  0  0  0  0  0  0  0  0  0
   -3.8728   -2.3593   14.7106 O   0  0  0  0  0  0  0  0  0  0  0  0
   -2.5249   -2.1101   14.8131 C   0  0  0  0  0  0  0  0  0  0  0  0
   -1.7501   -2.8737   15.6749 C   0  0  0  0  0  0  0  0  0  0  0  0
   -0.3910   -2.6176   15.8092 C   0  0  0  0  0  0  0  0  0  0  0  0
    0.2227   -1.5905   15.0869 C   0  0  0  0  0  0  0  0  0  0  0  0
    1.6077   -1.3711   15.3228 N   0  0  0  0  0  0  0  0  0  0  0  0
    2.5318   -0.4406   14.7752 C   0  0  0  0  0  0  0  0  0  0  0  0
    2.1656    0.3957   13.7562 N   0  0  0  0  0  0  0  0  0  0  0  0
    3.1117    1.2369   13.2296 C   0  0  0  0  0  0  0  0  0  0  0  0
    4.4129    1.2745   13.7026 C   0  0  0  0  0  0  0  0  0  0  0  0
    4.7445    0.4891   14.7604 N   0  0  0  0  0  0  0  0  0  0  0  0
    5.8979    0.3839   15.4837 C   0  0  0  0  0  0  0  0  0  0  0  0
    5.5998   -0.5411   16.5157 C   0  0  0  0  0  0  0  0  0  0  0  0
    4.3864   -1.0537   16.3628 N   0  0  0  0  0  0  0  0  0  0  0  0
    3.8368   -0.3920   15.3291 C   0  0  0  0  0  0  0  0  0  0  0  0
    2.6550    2.1423   12.1326 C   0  0  0  0  0  0  0  0  0  0  0  0
    3.5650    2.6308   11.1723 C   0  0  0  0  0  0  0  0  0  0  0  0
    3.1221    3.4386   10.1249 C   0  0  0  0  0  0  0  0  0  0  0  0
    1.7757    3.7777   10.0261 C   0  0  0  0  0  0  0  0  0  0  0  0
    0.8680    3.3392   10.9975 C   0  0  0  0  0  0  0  0  0  0  0  0
    1.3092    2.5240   12.0437 C   0  0  0  0  0  0  0  0  0  0  0  0
   -0.5769    3.7618   10.9126 C   0  0  0  0  0  0  0  0  0  0  0  0
   -1.1111    3.9318    9.8164 O   0  0  0  0  0  0  0  0  0  0  0  0
   -1.1792    4.0031   12.1232 N   0  0  0  0  0  0  0  0  0  0  0  0
   -2.4941    4.5708   12.2428 C   0  0  0  0  0  0  0  0  0  0  0  0
   -3.4732    4.3742   11.2553 C   0  0  0  0  0  0  0  0  0  0  0  0
   -4.7281    4.9504   11.3975 C   0  0  0  0  0  0  0  0  0  0  0  0
   -5.0306    5.7263   12.5247 C   0  0  0  0  0  0  0  0  0  0  0  0
   -4.0556    5.9172   13.5169 C   0  0  0  0  0  0  0  0  0  0  0  0
   -2.7906    5.3372   13.3771 C   0  0  0  0  0  0  0  0  0  0  0  0
   -6.3945    6.3441   12.6680 C   0  0  0  0  0  0  0  0  0  0  0  0
   -7.2177    6.1258   11.7478 O   0  0  0  0  0  0  0  0  0  0  0  0
   -6.6066    7.0283   13.6967 O   0  0  0  0  0  0  0  0  0  0  0  0
   -0.5540   -0.8141   14.1957 C   0  0  0  0  0  0  0  0  0  0  0  0
   -1.9401   -1.0806   14.0641 C   0  0  0  0  0  0  0  0  0  0  0  0
   -2.7443   -0.3364   13.2160 O   0  0  0  0  0  0  0  0  0  0  0  0
   -2.2132    0.6462   12.3458 C   0  0  0  0  0  0  0  0  0  0  0  0
   -5.3361   -3.2549   13.5857 H   0  0  0  0  0  0  0  0  0  0  0  0
   -3.7839   -4.0892   13.5560 H   0  0  0  0  0  0  0  0  0  0  0  0
   -4.0102   -2.5844   12.6405 H   0  0  0  0  0  0  0  0  0  0  0  0
   -2.2076   -3.6642   16.2534 H   0  0  0  0  0  0  0  0  0  0  0  0
    0.1980   -3.2129   16.4943 H   0  0  0  0  0  0  0  0  0  0  0  0
    2.0049   -1.9718   16.0350 H   0  0  0  0  0  0  0  0  0  0  0  0
    5.1749    1.9434   13.3291 H   0  0  0  0  0  0  0  0  0  0  0  0
    6.7778    0.9747   15.2766 H   0  0  0  0  0  0  0  0  0  0  0  0
    6.2427   -0.8274   17.3331 H   0  0  0  0  0  0  0  0  0  0  0  0
    4.6093    2.3606   11.2287 H   0  0  0  0  0  0  0  0  0  0  0  0
    3.8254    3.8001    9.3864 H   0  0  0  0  0  0  0  0  0  0  0  0
    1.4370    4.4087    9.2133 H   0  0  0  0  0  0  0  0  0  0  0  0
    0.6084    2.1782   12.7883 H   0  0  0  0  0  0  0  0  0  0  0  0
   -0.6284    3.9274   12.9685 H   0  0  0  0  0  0  0  0  0  0  0  0
   -3.2732    3.7726   10.3909 H   0  0  0  0  0  0  0  0  0  0  0  0
   -5.4737    4.7957   10.6329 H   0  0  0  0  0  0  0  0  0  0  0  0
   -4.2825    6.5166   14.3929 H   0  0  0  0  0  0  0  0  0  0  0  0
   -2.0386    5.4914   14.1417 H   0  0  0  0  0  0  0  0  0  0  0  0
   -0.1130   -0.0178   13.6310 H   0  0  0  0  0  0  0  0  0  0  0  0
   -3.0333    1.0720   11.7646 H   0  0  0  0  0  0  0  0  0  0  0  0
   -1.4951    0.2209   11.6444 H   0  0  0  0  0  0  0  0  0  0  0  0
   -1.7591    1.4508   12.9195 H   0  0  0  0  0  0  0  0  0  0  0  0
  1  2  1  0
  1 39  1  0
  1 40  1  0
  1 41  1  0
  2  3  1  0
  3  4  2  0
  3 36  1  0
  4  5  1  0
  4 42  1  0
  5  6  2  0
  5 43  1  0
  6  7  1  0
  6 35  1  0
  7  8  1  0
  7 44  1  0
  8  9  2  0
  8 16  1  0
  9 10  1  0
 10 11  2  0
 10 17  1  0
 11 12  1  0
 11 45  1  0
 12 13  1  0
 12 16  1  0
 13 14  2  0
 13 46  1  0
 14 15  1  0
 14 47  1  0
 15 16  2  0
 17 18  2  0
 17 22  1  0
 18 19  1  0
 18 48  1  0
 19 20  2  0
 19 49  1  0
 20 21  1  0
 20 50  1  0
 21 22  2  0
 21 23  1  0
 22 51  1  0
 23 24  2  0
 23 25  1  0
 25 26  1  0
 25 52  1  0
 26 27  2  0
 26 31  1  0
 27 28  1  0
 27 53  1  0
 28 29  2  0
 28 54  1  0
 29 30  1  0
 29 32  1  0
 30 31  2  0
 30 55  1  0
 31 56  1  0
 32 33  2  0
 32 34  1  0
 35 36  2  0
 35 57  1  0
 36 37  1  0
 37 38  1  0
 38 58  1  0
 38 59  1  0
 38 60  1  0
M  CHG  1  34  -1
M  END
>  <IC50[nM]>  (12) 
0.83999999999999997

>  <atom.dprop.PartialCharge>  (12) 
0.11018302 -0.32683426 0.081983656 -0.14708756 -0.118559994 0.12560308 -0.69926745 0.61255616 -0.62103784 0.1665869 -0.12226769 -0.06593695 -0.29093552 0.32543766 -0.6269784 0.2652234 -0.07699094 -0.081335 -0.13981083 -0.098213516 -0.1472403 -0.07621469 0.68210685 -0.5744736 -0.49189305 0.004505612 -0.15469998 -0.092502564 -0.11708735 -0.092502564 -0.15469998 0.9026768 -0.82055813 -0.82055813 -0.12611514 0.080430046 -0.33336 0.11535224 0.042808495 0.042808495 0.042808495 0.1417169 0.1420759 0.43911973 0.17508979 0.17917697 0.048957184 0.1380878 0.13806841 0.14205447 0.15181956 0.31318375 0.10989024 0.15983818 0.15983818 0.10989024 0.14723739 0.04001522 0.04001522 0.04001522

>  <experimental dG reference units>  (12) 
nM

>  <experimental dG reference field>  (12) 
IC50[nM]

>  <kJ/mol experimental dG>  (12) 
-52.12604680252165

>  <kcal/mol experimental dG>  (12) 
-12.458424187983185

>  <AmberAM1BCCCache>  (12) 
gASVzwQAAAAAAABdlCiMFm51bXB5Ll9jb3JlLm11bHRpYXJyYXmUjAZzY2FsYXKUk5SMBW51bXB5lIwFZHR5cGWUk5SMAmY4lImIh5RSlChLA4wBPJROTk5K/////0r/////SwB0lGJDCB0Yw5vdEPU/lIaUUpRoA2gJQwgPYxWljfAMwJSGlFKUaANoCUMIDAJkFq647z+UhpRSlGgDaAlDCEEpSeCqa/2/lIaUUpRoA2gJQwi5Zv1RB/j6v5SGlFKUaANoCUMIUv+WaZgj+j+UhpRSlGgDaAlDCNy7zoNfjiDAlIaUUpRoA2gJQwhEzt6QRzkgQJSGlFKUaANoCUMIzNctQjH5IMCUhpRSlGgDaAlDCHoUhuiQiRVAlIaUUpRoA2gJQwgR5XpymKsDwJSGlFKUaANoCUMIxrywZBob4D+UhpRSlGgDaAlDCOLjmVyqtwPAlIaUUpRoA2gJQwixMCVK4E+zv5SGlFKUaANoCUMI9I8yS6IQB8CUhpRSlGgDaAlDCNE3AW6yXgDAlIaUUpRoA2gJQwiIPhtqaJL8v5SGlFKUaANoCUMIyxftB1mN7r+UhpRSlGgDaAlDCM9T7fMlufu/lIaUUpRoA2gJQwg9QLYLJ0vyv5SGlFKUaANoCUMI3BmTKlHz+b+UhpRSlGgDaAlDCIhQHSL9Sey/lIaUUpRoA2gJQwhOOOUj6lYfQJSGlFKUaANoCUMIRydHBfwmHMCUhpRSlGgDaAlDCDvWW6ugLBXAlIaUUpRoA2gJQwgnyZW5Qvy/P5SGlFKUaANoCUMIbVLspsBZAcCUhpRSlGgDaAlDCJxczhh5KfG/lIaUUpRoA2gJQwjFLKOIMjL5v5SGlFKUaANoCUMInFzOGHkp8b+UhpRSlGgDaAlDCG1S7KbAWQHAlIaUUpRoA2gJQwijyz8fA28lQJSGlFKUaANoCUMIf7AGkdWPI8CUhpRSlGgDaAlDCH+wBpHVjyPAlIaUUpRoA2gJQwgmPRodAzMCwJSGlFKUaANoCUMI+2Qtw5MV9j+UhpRSlGgDaAlDCLJgU3mxCA3AlIaUUpRoA2gJQwjZHEfzleD0P5SGlFKUaANoCUMIdoxxJxZ13z+UhpRSlGgDaAlDCHaMcScWdd8/lIaUUpRoA2gJQwh2jHEnFnXfP5SGlFKUaANoCUMIG18R7y9n+j+UhpRSlGgDaAlDCOpQhegG+Po/lIaUUpRoA2gJQwiUNSJNmzcUQJSGlFKUaANoCUMI40nynZxBAUCUhpRSlGgDaAlDCFc5pGuX6gFAlIaUUpRoA2gJQwhATLTJeCkBQJSGlFKUaANoCUMIdUd9OZZY+z+UhpRSlGgDaAlDCHp7KfyBRfk/lIaUUpRoA2gJQwgvTAGRTij7P5SGlFKUaANoCUMIuA5NH/Kb/T+UhpRSlGgDaAlDCOYl2oHl5gxAlIaUUpRoA2gJQwgHps0P/ZL3P5SGlFKUaANoCUMILBhVzmI7/T+UhpRSlGgDaAlDCCwYVc5iO/0/lIaUUpRoA2gJQwgHps0P/ZL3P5SGlFKUaANoCUMIAD51iiW5+z+UhpRSlGgDaAlDCLFqYi2CW+A/lIaUUpRoA2gJQwixamItglvgP5SGlFKUaANoCUMIsWpiLYJb4D+UhpRSlGUu

$$$$
CHEMBL3265029
     RDKit          3D

 43 47  0  0  0  0  0  0  0  0999 V2000
   -4.2507   -3.1011   13.5632 C   0  0  0  0  0  0  0  0  0  0  0  0
   -3.8673   -2.3305   14.6902 O   0  0  0  0  0  0  0  0  0  0  0  0
   -2.5168   -2.0957   14.8067 C   0  0  0  0  0  0  0  0  0  0  0  0
   -1.9172   -1.0702   14.0633 C   0  0  0  0  0  0  0  0  0  0  0  0
   -0.5491   -0.8101   14.2065 C   0  0  0  0  0  0  0  0  0  0  0  0
    0.2199   -1.5870   15.0928 C   0  0  0  0  0  0  0  0  0  0  0  0
    1.6080   -1.3729   15.3230 N   0  0  0  0  0  0  0  0  0  0  0  0
    2.5324   -0.4358   14.7759 C   0  0  0  0  0  0  0  0  0  0  0  0
    2.1663    0.3860   13.7470 N   0  0  0  0  0  0  0  0  0  0  0  0
    3.0989    1.2355   13.2241 C   0  0  0  0  0  0  0  0  0  0  0  0
    4.4088    1.2797   13.7018 C   0  0  0  0  0  0  0  0  0  0  0  0
    4.7449    0.4891   14.7567 N   0  0  0  0  0  0  0  0  0  0  0  0
    5.8960    0.3776   15.4790 C   0  0  0  0  0  0  0  0  0  0  0  0
    5.5960   -0.5292   16.5069 C   0  0  0  0  0  0  0  0  0  0  0  0
    4.3874   -1.0583   16.3532 N   0  0  0  0  0  0  0  0  0  0  0  0
    3.8346   -0.3857   15.3305 C   0  0  0  0  0  0  0  0  0  0  0  0
    2.6263    2.1555   12.1187 C   0  0  0  0  0  0  0  0  0  0  0  0
    3.5439    2.6382   11.1639 C   0  0  0  0  0  0  0  0  0  0  0  0
    3.1468    3.4593   10.1107 C   0  0  0  0  0  0  0  0  0  0  0  0
    1.8029    3.8136   10.0160 C   0  0  0  0  0  0  0  0  0  0  0  0
    0.9932    4.6001    9.1195 C   0  0  0  0  0  0  0  0  0  0  0  0
   -0.2428    4.6141    9.5158 N   0  0  0  0  0  0  0  0  0  0  0  0
   -0.3351    3.8865   10.6250 N   0  0  0  0  0  0  0  0  0  0  0  0
    0.8815    3.3478   10.9920 C   0  0  0  0  0  0  0  0  0  0  0  0
    1.2640    2.5243   12.0473 C   0  0  0  0  0  0  0  0  0  0  0  0
   -0.3962   -2.6164   15.8132 C   0  0  0  0  0  0  0  0  0  0  0  0
   -1.7505   -2.8679   15.6748 C   0  0  0  0  0  0  0  0  0  0  0  0
   -5.3298   -3.2473   13.5826 H   0  0  0  0  0  0  0  0  0  0  0  0
   -3.7850   -4.0873   13.5638 H   0  0  0  0  0  0  0  0  0  0  0  0
   -4.0025   -2.5878   12.6346 H   0  0  0  0  0  0  0  0  0  0  0  0
   -2.5171   -0.4778   13.3832 H   0  0  0  0  0  0  0  0  0  0  0  0
   -0.1065   -0.0198   13.6433 H   0  0  0  0  0  0  0  0  0  0  0  0
    2.0019   -1.9714   16.0327 H   0  0  0  0  0  0  0  0  0  0  0  0
    5.1639    1.9590   13.3284 H   0  0  0  0  0  0  0  0  0  0  0  0
    6.7685    0.9695   15.2724 H   0  0  0  0  0  0  0  0  0  0  0  0
    6.2504   -0.7908   17.3182 H   0  0  0  0  0  0  0  0  0  0  0  0
    4.5902    2.3441   11.2391 H   0  0  0  0  0  0  0  0  0  0  0  0
    3.8565    3.8021    9.3952 H   0  0  0  0  0  0  0  0  0  0  0  0
    1.2988    5.1235    8.2486 H   0  0  0  0  0  0  0  0  0  0  0  0
   -1.2242    3.7838   11.0912 H   0  0  0  0  0  0  0  0  0  0  0  0
    0.5635    2.1916   12.7791 H   0  0  0  0  0  0  0  0  0  0  0  0
    0.1890   -3.2156   16.4997 H   0  0  0  0  0  0  0  0  0  0  0  0
   -2.2053   -3.6566   16.2497 H   0  0  0  0  0  0  0  0  0  0  0  0
  1  2  1  0
  1 28  1  0
  1 29  1  0
  1 30  1  0
  2  3  1  0
  3  4  2  0
  3 27  1  0
  4  5  1  0
  4 31  1  0
  5  6  2  0
  5 32  1  0
  6  7  1  0
  6 26  1  0
  7  8  1  0
  7 33  1  0
  8  9  2  0
  8 16  1  0
  9 10  1  0
 10 11  2  0
 10 17  1  0
 11 12  1  0
 11 34  1  0
 12 13  1  0
 12 16  1  0
 13 14  2  0
 13 35  1  0
 14 15  1  0
 14 36  1  0
 15 16  2  0
 17 18  2  0
 17 25  1  0
 18 19  1  0
 18 37  1  0
 19 20  2  0
 19 38  1  0
 20 21  1  0
 20 24  1  0
 21 22  2  0
 21 39  1  0
 22 23  1  0
 23 24  1  0
 23 40  1  0
 24 25  2  0
 25 41  1  0
 26 27  2  0
 26 42  1  0
 27 43  1  0
M  END
>  <IC50[nM]>  (13) 
7

>  <atom.dprop.PartialCharge>  (13) 
0.111960486 -0.31917313 0.12699643 -0.17301139 -0.08568916 0.06960769 -0.69236 0.60892093 -0.6209661 0.15620318 -0.117065206 -0.0651039 -0.2887832 0.32748652 -0.6249285 0.26626033 -0.041933175 -0.13234879 -0.059384838 -0.20952013 0.34968093 -0.40388596 -0.39922082 0.08058986 -0.11773343 -0.08568916 -0.17301139 0.046588708 0.046588708 0.046588708 0.14657207 0.13836613 0.441792 0.17668733 0.18122624 0.051006377 0.1371662 0.13882306 0.05641041 0.47581926 0.14352836 0.13836613 0.14657207

>  <experimental dG reference units>  (13) 
nM

>  <experimental dG reference field>  (13) 
IC50[nM]

>  <kJ/mol experimental dG>  (13) 
-46.837360319315216

>  <kcal/mol experimental dG>  (13) 
-11.1943977818631

>  <AmberAM1BCCCache>  (13) 
gASVjAMAAAAAAABdlCiMFm51bXB5Ll9jb3JlLm11bHRpYXJyYXmUjAZzY2FsYXKUk5SMBW51bXB5lIwFZHR5cGWUk5SMAmY4lImIh5RSlChLA4wBPJROTk5K/////0r/////SwB0lGJDCCuT9kaMcvU/lIaUUpRoA2gJQwiGcc+MytIOwJSGlFKUaANoCUMITtvcFoqn9j+UhpRSlGgDaAlDCBlzI+97Zf+/lIaUUpRoA2gJQwgYvjzd4zHyv5SGlFKUaANoCUMI/HQfM3GG8D+UhpRSlGgDaAlDCB1KpoJNmiDAlIaUUpRoA2gJQwjItC3CA6AgQJSGlFKUaANoCUMIjN+vyIFHIcCUhpRSlGgDaAlDCPf31uq0cRVAlIaUUpRoA2gJQwi2AcFg/vwEwJSGlFKUaANoCUMIysUnGVkd4D+UhpRSlGgDaAlDCIoaNiyG/wPAlIaUUpRoA2gJQwi0XLgdArCcv5SGlFKUaANoCUMIhdneeF+XBsCUhpRSlGgDaAlDCL1pGebV1gDAlIaUUpRoA2gJQwi5oSTQkVPzv5SGlFKUaANoCUMIykASzk4x97+UhpRSlGgDaAlDCEKA1odiBOq/lIaUUpRoA2gJQwj2kURnt1EDwJSGlFKUaANoCUMI6HI/zm2KEECUhpRSlGgDaAlDCNCrToivGBjAlIaUUpRoA2gJQwgeed4PuMPJv5SGlFKUaANoCUMI9yYNLsdz57+UhpRSlGgDaAlDCPUa8hGMs/i/lIaUUpRoA2gJQwgYvjzd4zHyv5SGlFKUaANoCUMIGXMj73tl/7+UhpRSlGgDaAlDCD9q0TJQvuA/lIaUUpRoA2gJQwg/atEyUL7gP5SGlFKUaANoCUMIP2rRMlC+4D+UhpRSlGgDaAlDCPfLuJO1Wfs/lIaUUpRoA2gJQwhA4Yodc4D6P5SGlFKUaANoCUMI+REtzCpoFECUhpRSlGgDaAlDCA4fIKkNgQBAlIaUUpRoA2gJQwivAgicu6IBQJSGlFKUaANoCUMIageM83NyAUCUhpRSlGgDaAlDCJmvoIZje/w/lIaUUpRoA2gJQwgn2kSa3sj6P5SGlFKUaANoCUMIpXM2dddu5T+UhpRSlGgDaAlDCF1uJ8hnrQ1AlIaUUpRoA2gJQwgn2kSa3sj6P5SGlFKUaANoCUMIQOGKHXOA+j+UhpRSlGgDaAlDCPfLuJO1Wfs/lIaUUpRlLg==

$$$$
CHEMBL3265002
     RDKit          3D

 65 70  0  0  0  0  0  0  0  0999 V2000
   -4.2555   -3.1029   13.5707 C   0  0  0  0  0  0  0  0  0  0  0  0
   -3.8740   -2.3535   14.7166 O   0  0  0  0  0  0  0  0  0  0  0  0
   -2.5261   -2.1057   14.8053 C   0  0  0  0  0  0  0  0  0  0  0  0
   -1.7497   -2.8673   15.6804 C   0  0  0  0  0  0  0  0  0  0  0  0
   -0.3863   -2.6106   15.8150 C   0  0  0  0  0  0  0  0  0  0  0  0
    0.2220   -1.5829   15.0890 C   0  0  0  0  0  0  0  0  0  0  0  0
    1.5930   -1.3491   15.3060 N   0  0  0  0  0  0  0  0  0  0  0  0
    2.5452   -0.4689   14.7536 C   0  0  0  0  0  0  0  0  0  0  0  0
    2.2178    0.3551   13.7190 N   0  0  0  0  0  0  0  0  0  0  0  0
    3.1227    1.2406   13.2181 C   0  0  0  0  0  0  0  0  0  0  0  0
    4.4207    1.3039   13.7175 C   0  0  0  0  0  0  0  0  0  0  0  0
    4.7482    0.4921   14.7654 N   0  0  0  0  0  0  0  0  0  0  0  0
    5.8898    0.3836   15.5035 C   0  0  0  0  0  0  0  0  0  0  0  0
    5.5715   -0.5089   16.5177 C   0  0  0  0  0  0  0  0  0  0  0  0
    4.3818   -1.0543   16.3920 N   0  0  0  0  0  0  0  0  0  0  0  0
    3.8330   -0.4170   15.3252 C   0  0  0  0  0  0  0  0  0  0  0  0
    2.6564    2.1560   12.1340 C   0  0  0  0  0  0  0  0  0  0  0  0
    3.5566    2.6280   11.1666 C   0  0  0  0  0  0  0  0  0  0  0  0
    3.1294    3.4499   10.1277 C   0  0  0  0  0  0  0  0  0  0  0  0
    1.7879    3.8078   10.0318 C   0  0  0  0  0  0  0  0  0  0  0  0
    0.8660    3.3707   10.9895 C   0  0  0  0  0  0  0  0  0  0  0  0
    1.3140    2.5576   12.0419 C   0  0  0  0  0  0  0  0  0  0  0  0
   -0.5783    3.7648   10.8956 C   0  0  0  0  0  0  0  0  0  0  0  0
   -1.3033    3.5740    9.9236 O   0  0  0  0  0  0  0  0  0  0  0  0
   -1.0030    4.3609   12.0101 N   0  0  0  0  0  0  0  0  0  0  0  0
   -2.3543    4.8635   12.2406 C   0  0  0  0  0  0  0  0  0  0  0  0
   -2.5836    5.8118   13.2304 C   0  0  0  0  0  0  0  0  0  0  0  0
   -3.8699    6.2902   13.4498 C   0  0  0  0  0  0  0  0  0  0  0  0
   -4.9269    5.8204   12.6794 C   0  0  0  0  0  0  0  0  0  0  0  0
   -4.6976    4.8721   11.6896 C   0  0  0  0  0  0  0  0  0  0  0  0
   -3.4113    4.3936   11.4701 C   0  0  0  0  0  0  0  0  0  0  0  0
   -6.3151    6.3368   12.9162 C   0  0  0  0  0  0  0  0  0  0  0  0
   -6.6950    7.2261   13.8051 N   0  0  0  0  0  0  0  0  0  0  0  0
   -8.0029    7.3574   13.6369 C   0  0  0  0  0  0  0  0  0  0  0  0
   -8.4734    6.5379   12.6216 C   0  0  0  0  0  0  0  0  0  0  0  0
   -7.3627    5.8801   12.1626 N   0  0  0  0  0  0  0  0  0  0  0  0
   -0.5664   -0.8256   14.2115 C   0  0  0  0  0  0  0  0  0  0  0  0
   -1.9389   -1.0760   14.0580 C   0  0  0  0  0  0  0  0  0  0  0  0
   -2.6991   -0.3052   13.2021 O   0  0  0  0  0  0  0  0  0  0  0  0
   -2.0020    0.6746   12.5251 C   0  0  0  0  0  0  0  0  0  0  0  0
   -3.7528   -4.0708   13.5508 H   0  0  0  0  0  0  0  0  0  0  0  0
   -4.0179   -2.5675   12.6505 H   0  0  0  0  0  0  0  0  0  0  0  0
   -5.3306   -3.2808   13.5889 H   0  0  0  0  0  0  0  0  0  0  0  0
   -2.2100   -3.6528   16.2607 H   0  0  0  0  0  0  0  0  0  0  0  0
    0.1911   -3.2101   16.5029 H   0  0  0  0  0  0  0  0  0  0  0  0
    2.0246   -1.8858   16.0475 H   0  0  0  0  0  0  0  0  0  0  0  0
    5.1701    2.0030   13.3719 H   0  0  0  0  0  0  0  0  0  0  0  0
    6.7656    0.9739   15.2897 H   0  0  0  0  0  0  0  0  0  0  0  0
    6.2089   -0.8330   17.3301 H   0  0  0  0  0  0  0  0  0  0  0  0
    4.5934    2.3309   11.2002 H   0  0  0  0  0  0  0  0  0  0  0  0
    3.8342    3.7939    9.3845 H   0  0  0  0  0  0  0  0  0  0  0  0
    1.4564    4.4350    9.2166 H   0  0  0  0  0  0  0  0  0  0  0  0
    0.6053    2.2130   12.7811 H   0  0  0  0  0  0  0  0  0  0  0  0
   -0.4420    4.5376   12.8311 H   0  0  0  0  0  0  0  0  0  0  0  0
   -1.7606    6.1776   13.8302 H   0  0  0  0  0  0  0  0  0  0  0  0
   -4.0484    7.0285   14.2205 H   0  0  0  0  0  0  0  0  0  0  0  0
   -5.5206    4.5063   11.0897 H   0  0  0  0  0  0  0  0  0  0  0  0
   -3.2328    3.6553   10.6995 H   0  0  0  0  0  0  0  0  0  0  0  0
   -8.6003    8.0331   14.2384 H   0  0  0  0  0  0  0  0  0  0  0  0
   -9.4586    6.3714   12.2026 H   0  0  0  0  0  0  0  0  0  0  0  0
   -7.3154    5.1912   11.4150 H   0  0  0  0  0  0  0  0  0  0  0  0
   -0.1547   -0.0168   13.6337 H   0  0  0  0  0  0  0  0  0  0  0  0
   -2.6851    1.2257   11.8787 H   0  0  0  0  0  0  0  0  0  0  0  0
   -1.2218    0.2131   11.9198 H   0  0  0  0  0  0  0  0  0  0  0  0
   -1.5485    1.3591   13.2420 H   0  0  0  0  0  0  0  0  0  0  0  0
  1  2  1  0
  1 41  1  0
  1 42  1  0
  1 43  1  0
  2  3  1  0
  3  4  2  0
  3 38  1  0
  4  5  1  0
  4 44  1  0
  5  6  2  0
  5 45  1  0
  6  7  1  0
  6 37  1  0
  7  8  1  0
  7 46  1  0
  8  9  2  0
  8 16  1  0
  9 10  1  0
 10 11  2  0
 10 17  1  0
 11 12  1  0
 11 47  1  0
 12 13  1  0
 12 16  1  0
 13 14  2  0
 13 48  1  0
 14 15  1  0
 14 49  1  0
 15 16  2  0
 17 18  2  0
 17 22  1  0
 18 19  1  0
 18 50  1  0
 19 20  2  0
 19 51  1  0
 20 21  1  0
 20 52  1  0
 21 22  2  0
 21 23  1  0
 22 53  1  0
 23 24  2  0
 23 25  1  0
 25 26  1  0
 25 54  1  0
 26 27  2  0
 26 31  1  0
 27 28  1  0
 27 55  1  0
 28 29  2  0
 28 56  1  0
 29 30  1  0
 29 32  1  0
 30 31  2  0
 30 57  1  0
 31 58  1  0
 32 33  2  0
 32 36  1  0
 33 34  1  0
 34 35  2  0
 34 59  1  0
 35 36  1  0
 35 60  1  0
 36 61  1  0
 37 38  2  0
 37 62  1  0
 38 39  1  0
 39 40  1  0
 40 63  1  0
 40 64  1  0
 40 65  1  0
M  END
>  <IC50[nM]>  (14) 
16.5

>  <atom.dprop.PartialCharge>  (14) 
0.112580195 -0.32443675 0.084380776 -0.14469022 -0.116162755 0.12800013 -0.69686925 0.6149533 -0.6186399 0.16898376 -0.11987037 -0.063539684 -0.28853804 0.32783452 -0.62458026 0.26762056 -0.07459369 -0.07893788 -0.13741356 -0.09581633 -0.14484294 -0.07381749 0.6841916 -0.5720763 -0.48744535 0.06901895 -0.15522195 -0.07937065 -0.15265262 -0.07937065 -0.15522195 0.45000467 -0.64837694 0.29195863 -0.24935944 -0.3203431 -0.123717815 0.082827166 -0.33096245 0.11774939 0.045205735 0.045205735 0.045205735 0.14411423 0.14447324 0.44151703 0.17748713 0.18157431 0.051354438 0.14048515 0.14046577 0.1444518 0.15421687 0.31534052 0.14496963 0.14671336 0.14671336 0.14496963 0.04649625 0.17433773 0.30459446 0.14963473 0.04241246 0.04241246 0.04241246

>  <experimental dG reference units>  (14) 
nM

>  <experimental dG reference field>  (14) 
IC50[nM]

>  <kJ/mol experimental dG>  (14) 
-44.698576449390735

>  <kcal/mol experimental dG>  (14) 
-10.683216168592432

>  <AmberAM1BCCCache>  (14) 
gASVLgUAAAAAAABdlCiMFm51bXB5Ll9jb3JlLm11bHRpYXJyYXmUjAZzY2FsYXKUk5SMBW51bXB5lIwFZHR5cGWUk5SMAmY4lImIh5RSlChLA4wBPJROTk5K/////0r/////SwB0lGJDCCN5shxfEPU/lIaUUpRoA2gJQwi7ptMJgGkNwJSGlFKUaANoCUMIZ0qN1j7N8D+UhpRSlGgDaAlDCEqqFTXvnf6/lIaUUpRoA2gJQwi6ObqTceX4v5SGlFKUaANoCUMIRKdCC+dO9z+UhpRSlGgDaAlDCF7N7ieTpiDAlIaUUpRoA2gJQwiTrjLm6rEgQJSGlFKUaANoCUMINuIHY9BZIcCUhpRSlGgDaAlDCOLvGYNBaRVAlIaUUpRoA2gJQwgRIMc2Dn0EwJSGlFKUaANoCUMIIx2PFF3y3j+UhpRSlGgDaAlDCGAzIpzptwPAlIaUUpRoA2gJQwiba+CSuI6gv5SGlFKUaANoCUMIyPCey9pfBsCUhpRSlGgDaAlDCG5/rRtprwDAlIaUUpRoA2gJQwhqGbQ9Wy/6v5SGlFKUaANoCUMI2NPOI9+G6b+UhpRSlGgDaAlDCG8Kkig+yPq/lIaUUpRoA2gJQwgS3G5Q1Wvyv5SGlFKUaANoCUMIEnU/w9Kn/L+UhpRSlGgDaAlDCKK6DlFdiOq/lIaUUpRoA2gJQwih/mKP9w0gQJSGlFKUaANoCUMIWmDv5RR2G8CUhpRSlGgDaAlDCITnbKsUEhbAlIaUUpRoA2gJQwiPAfeJDUTtP5SGlFKUaANoCUMIgL325F1AAMCUhpRSlGgDaAlDCJFHgv8sH++/lIaUUpRoA2gJQwhu8DtHyNH7v5SGlFKUaANoCUMIkUeC/ywf77+UhpRSlGgDaAlDCIC99uRdQADAlIaUUpRoA2gJQwiSwYjdXTcVQJSGlFKUaANoCUMIQx7cRE8eH8CUhpRSlGgDaAlDCHSPTIiWpQtAlIaUUpRoA2gJQwgTw6J9jzIIwJSGlFKUaANoCUMIZ69FqvwQDcCUhpRSlGgDaAlDCHGtbW+/ff6/lIaUUpRoA2gJQwg539wWlxP1P5SGlFKUaANoCUMIAaJPsseZDcCUhpRSlGgDaAlDCBpuflAGgfU/lIaUUpRoA2gJQwi+30ZVlKXgP5SGlFKUaANoCUMIvt9GVZSl4D+UhpRSlGgDaAlDCL7fRlWUpeA/lIaUUpRoA2gJQwhju3wY+Zb6P5SGlFKUaANoCUMIssEsjZlW+j+UhpRSlGgDaAlDCFgGzSLtgxRAlIaUUpRoA2gJQwjyCriQYpgAQJSGlFKUaANoCUMIlO6fgxC6AUCUhpRSlGgDaAlDCBb0uem8gQFAlIaUUpRoA2gJQwicdxgy/Er9P5SGlFKUaANoCUMIqLb4wEDH+j+UhpRSlGgDaAlDCNnEhMdpNvo/lIaUUpRoA2gJQwhOcWi9W4v9P5SGlFKUaANoCUMIT7W13Zs4DkCUhpRSlGgDaAlDCEiAitJ48vw/lIaUUpRoA2gJQwiQr7I9rA/7P5SGlFKUaANoCUMIkK+yPawP+z+UhpRSlGgDaAlDCEiAitJ48vw/lIaUUpRoA2gJQwiQoiifW8DfP5SGlFKUaANoCUMIlAj2ZIawAECUhpRSlGgDaAlDCFx7WxTHcgxAlIaUUpRoA2gJQwjMhaQ4Jbr8P5SGlFKUaANoCUMIvmgnzmv74D+UhpRSlGgDaAlDCL5oJ85r++A/lIaUUpRoA2gJQwi+aCfOa/vgP5SGlFKUZS4=

$$$$
CHEMBL3265035
     RDKit          3D

 51 55  0  0  0  0  0  0  0  0999 V2000
   -4.5368   -3.3612   15.6406 C   0  0  0  0  0  0  0  0  0  0  0  0
   -3.9561   -2.3810   14.7221 N   0  0  0  0  0  0  0  0  0  0  0  0
   -4.6759   -2.0519   13.4970 C   0  0  0  0  0  0  0  0  0  0  0  0
   -4.8094   -3.1968   12.4731 C   0  0  0  0  0  0  0  0  0  0  0  0
   -5.3909   -2.7945   11.2538 O   0  0  0  0  0  0  0  0  0  0  0  0
   -2.5380   -2.1167   14.8106 C   0  0  0  0  0  0  0  0  0  0  0  0
   -1.9279   -1.0927   14.0460 C   0  0  0  0  0  0  0  0  0  0  0  0
   -0.5515   -0.8247   14.1929 C   0  0  0  0  0  0  0  0  0  0  0  0
    0.2181   -1.5869   15.0916 C   0  0  0  0  0  0  0  0  0  0  0  0
    1.6005   -1.3598   15.3303 N   0  0  0  0  0  0  0  0  0  0  0  0
    2.5326   -0.4516   14.7667 C   0  0  0  0  0  0  0  0  0  0  0  0
    2.1715    0.3794   13.7341 N   0  0  0  0  0  0  0  0  0  0  0  0
    3.1060    1.2367   13.2184 C   0  0  0  0  0  0  0  0  0  0  0  0
    4.4145    1.2803   13.6968 C   0  0  0  0  0  0  0  0  0  0  0  0
    4.7440    0.4821   14.7570 N   0  0  0  0  0  0  0  0  0  0  0  0
    5.8987    0.3805   15.4839 C   0  0  0  0  0  0  0  0  0  0  0  0
    5.5936   -0.5339   16.5243 C   0  0  0  0  0  0  0  0  0  0  0  0
    4.3807   -1.0510   16.3702 N   0  0  0  0  0  0  0  0  0  0  0  0
    3.8367   -0.4037   15.3198 C   0  0  0  0  0  0  0  0  0  0  0  0
    2.6315    2.1595   12.1222 C   0  0  0  0  0  0  0  0  0  0  0  0
    3.5425    2.6427   11.1618 C   0  0  0  0  0  0  0  0  0  0  0  0
    3.1486    3.4642   10.1071 C   0  0  0  0  0  0  0  0  0  0  0  0
    1.8051    3.8185   10.0149 C   0  0  0  0  0  0  0  0  0  0  0  0
    0.9940    4.5977    9.1169 C   0  0  0  0  0  0  0  0  0  0  0  0
   -0.2465    4.6060    9.5156 N   0  0  0  0  0  0  0  0  0  0  0  0
   -0.3325    3.8910   10.6299 N   0  0  0  0  0  0  0  0  0  0  0  0
    0.8808    3.3589   10.9978 C   0  0  0  0  0  0  0  0  0  0  0  0
    1.2718    2.5352   12.0615 C   0  0  0  0  0  0  0  0  0  0  0  0
   -0.3941   -2.6060   15.8167 C   0  0  0  0  0  0  0  0  0  0  0  0
   -1.7488   -2.8660   15.6892 C   0  0  0  0  0  0  0  0  0  0  0  0
   -4.1278   -4.3576   15.4842 H   0  0  0  0  0  0  0  0  0  0  0  0
   -5.6178   -3.4125   15.4956 H   0  0  0  0  0  0  0  0  0  0  0  0
   -4.3606   -3.0644   16.6771 H   0  0  0  0  0  0  0  0  0  0  0  0
   -4.3056   -1.1886   12.9786 H   0  0  0  0  0  0  0  0  0  0  0  0
   -5.6839   -1.7325   13.7631 H   0  0  0  0  0  0  0  0  0  0  0  0
   -5.1990   -4.1205   12.9069 H   0  0  0  0  0  0  0  0  0  0  0  0
   -3.8094   -3.5657   12.2747 H   0  0  0  0  0  0  0  0  0  0  0  0
   -4.7580   -2.2447   10.7741 H   0  0  0  0  0  0  0  0  0  0  0  0
   -2.5097   -0.4888   13.3742 H   0  0  0  0  0  0  0  0  0  0  0  0
   -0.1087   -0.0249   13.6285 H   0  0  0  0  0  0  0  0  0  0  0  0
    1.9936   -1.9427   16.0592 H   0  0  0  0  0  0  0  0  0  0  0  0
    5.1750    1.9595   13.3389 H   0  0  0  0  0  0  0  0  0  0  0  0
    6.7815    0.9622   15.2772 H   0  0  0  0  0  0  0  0  0  0  0  0
    6.2344   -0.8078   17.3485 H   0  0  0  0  0  0  0  0  0  0  0  0
    4.5815    2.3487   11.2258 H   0  0  0  0  0  0  0  0  0  0  0  0
    3.8643    3.8051    9.3767 H   0  0  0  0  0  0  0  0  0  0  0  0
    1.3025    5.1220    8.2278 H   0  0  0  0  0  0  0  0  0  0  0  0
   -1.2233    3.7862   11.0983 H   0  0  0  0  0  0  0  0  0  0  0  0
    0.5648    2.1990   12.8082 H   0  0  0  0  0  0  0  0  0  0  0  0
    0.1950   -3.1981   16.5054 H   0  0  0  0  0  0  0  0  0  0  0  0
   -2.1858   -3.6564   16.2764 H   0  0  0  0  0  0  0  0  0  0  0  0
  1  2  1  0
  1 31  1  0
  1 32  1  0
  1 33  1  0
  2  3  1  0
  2  6  1  0
  3  4  1  0
  3 34  1  0
  3 35  1  0
  4  5  1  0
  4 36  1  0
  4 37  1  0
  5 38  1  0
  6  7  2  0
  6 30  1  0
  7  8  1  0
  7 39  1  0
  8  9  2  0
  8 40  1  0
  9 10  1  0
  9 29  1  0
 10 11  1  0
 10 41  1  0
 11 12  2  0
 11 19  1  0
 12 13  1  0
 13 14  2  0
 13 20  1  0
 14 15  1  0
 14 42  1  0
 15 16  1  0
 15 19  1  0
 16 17  2  0
 16 43  1  0
 17 18  1  0
 17 44  1  0
 18 19  2  0
 20 21  2  0
 20 28  1  0
 21 22  1  0
 21 45  1  0
 22 23  2  0
 22 46  1  0
 23 24  1  0
 23 27  1  0
 24 25  2  0
 24 47  1  0
 25 26  1  0
 26 27  1  0
 26 48  1  0
 27 28  2  0
 28 49  1  0
 29 30  2  0
 29 50  1  0
 30 51  1  0
M  END
>  <IC50[nM]>  (15) 
7.5999999999999996

>  <atom.dprop.PartialCharge>  (15) 
0.21102655 -0.67551696 0.21165715 0.11990369 -0.59726465 0.17605604 -0.17501935 -0.10244937 0.08621316 -0.69275856 0.6085598 -0.62198293 0.15518674 -0.11808184 -0.06612052 -0.2897999 0.32647008 -0.62594545 0.26524374 -0.042949762 -0.1333654 -0.060401402 -0.2105368 0.34866446 -0.4049028 -0.40023762 0.079573356 -0.118750066 -0.10244937 -0.17501935 0.03655249 0.03655249 0.03655249 0.061790243 0.061790243 0.027135776 0.027135776 0.4041638 0.13488978 0.13475296 0.4415044 0.1756707 0.18020959 0.049989767 0.13614954 0.13780642 0.0553938 0.47480264 0.1425117 0.13475296 0.13488978

>  <experimental dG reference units>  (15) 
nM

>  <experimental dG reference field>  (15) 
IC50[nM]

>  <kJ/mol experimental dG>  (15) 
-46.63222944236301

>  <kcal/mol experimental dG>  (15) 
-11.145370325612575

>  <AmberAM1BCCCache>  (15) 
gASVJAQAAAAAAABdlCiMFm51bXB5Ll9jb3JlLm11bHRpYXJyYXmUjAZzY2FsYXKUk5SMBW51bXB5lIwFZHR5cGWUk5SMAmY4lImIh5RSlChLA4wBPJROTk5K/////0r/////SwB0lGJDCG56JYbe1wBAlIaUUpRoA2gJQwhyV94MJZMewJSGlFKUaANoCUMI7iLSmck/AECUhpRSlGgDaAlDCG4Zr+bJ+fM/lIaUUpRoA2gJQwiTRiFiMi8cwJSGlFKUaANoCUMId7vzZ/vD+T+UhpRSlGgDaAlDCL9qKrZr4/2/lIaUUpRoA2gJQwiKZmDqg9jzv5SGlFKUaANoCUMIKIniRs6P8T+UhpRSlGgDaAlDCO6k8y5KlCDAlIaUUpRoA2gJQwhCmlibAqMgQJSGlFKUaANoCUMIe3mU5ItKIcCUhpRSlGgDaAlDCINDHaipcRVAlIaUUpRoA2gJQwhxaVPQJgkFwJSGlFKUaANoCUMIwk28tW7Z3z+UhpRSlGgDaAlDCBaB54XAFwTAlIaUUpRoA2gJQwhG0TV7l2akv5SGlFKUaANoCUMI+0X1P0BzBsCUhpRSlGgDaAlDCATVTpfIvgDAlIaUUpRoA2gJQwiKcwvbvlPzv5SGlFKUaANoCUMI+RS7BFgZ97+UhpRSlGgDaAlDCOYjpJ28BOq/lIaUUpRoA2gJQwjf+rfszVEDwJSGlFKUaANoCUMIdL6Fi2KKEECUhpRSlGgDaAlDCERgCMu6GBjAlIaUUpRoA2gJQwisBxVnIMXJv5SGlFKUaANoCUMImsraQyF057+UhpRSlGgDaAlDCMjs2By5s/i/lIaUUpRoA2gJQwiKZmDqg9jzv5SGlFKUaANoCUMIv2oqtmvj/b+UhpRSlGgDaAlDCCkIcB2llNw/lIaUUpRoA2gJQwgpCHAdpZTcP5SGlFKUaANoCUMIKQhwHaWU3D+UhpRSlGgDaAlDCDSNmz7QDeY/lIaUUpRoA2gJQwg0jZs+0A3mP5SGlFKUaANoCUMIlnPccTFX3j+UhpRSlGgDaAlDCJZz3HExV94/lIaUUpRoA2gJQwiw0QRiMdYSQJSGlFKUaANoCUMItCR2nAOn+T+UhpRSlGgDaAlDCOIYrMG2H/o/lIaUUpRoA2gJQwiFXXOJH2gUQJSGlFKUaANoCUMIJbasI/eAAECUhpRSlGgDaAlDCMaZlBalogFAlIaUUpRoA2gJQwivn/mDS2YBQJSGlFKUaANoCUMIaNv3T1qT/D+UhpRSlGgDaAlDCPYFnGPV4Po/lIaUUpRoA2gJQwgC0GhffW7lP5SGlFKUaANoCUMIpAaVWD+hDUCUhpRSlGgDaAlDCLEKILuNsPo/lIaUUpRoA2gJQwjiGKzBth/6P5SGlFKUaANoCUMItCR2nAOn+T+UhpRSlGUu

$$$$
CHEMBL3264997
     RDKit          3D

 60 64  0  0  0  0  0  0  0  0999 V2000
   -4.2555   -3.1029   13.5707 C   0  0  0  0  0  0  0  0  0  0  0  0
   -3.8740   -2.3535   14.7166 O   0  0  0  0  0  0  0  0  0  0  0  0
   -2.5261   -2.1057   14.8053 C   0  0  0  0  0  0  0  0  0  0  0  0
   -1.7497   -2.8673   15.6804 C   0  0  0  0  0  0  0  0  0  0  0  0
   -0.3863   -2.6106   15.8150 C   0  0  0  0  0  0  0  0  0  0  0  0
    0.2220   -1.5829   15.0890 C   0  0  0  0  0  0  0  0  0  0  0  0
    1.5930   -1.3491   15.3060 N   0  0  0  0  0  0  0  0  0  0  0  0
    2.5452   -0.4689   14.7536 C   0  0  0  0  0  0  0  0  0  0  0  0
    2.2178    0.3551   13.7190 N   0  0  0  0  0  0  0  0  0  0  0  0
    3.1227    1.2406   13.2181 C   0  0  0  0  0  0  0  0  0  0  0  0
    4.4207    1.3039   13.7175 C   0  0  0  0  0  0  0  0  0  0  0  0
    4.7482    0.4921   14.7654 N   0  0  0  0  0  0  0  0  0  0  0  0
    5.8898    0.3836   15.5035 C   0  0  0  0  0  0  0  0  0  0  0  0
    5.5715   -0.5089   16.5177 C   0  0  0  0  0  0  0  0  0  0  0  0
    4.3818   -1.0543   16.3920 N   0  0  0  0  0  0  0  0  0  0  0  0
    3.8330   -0.4170   15.3252 C   0  0  0  0  0  0  0  0  0  0  0  0
    2.6564    2.1560   12.1340 C   0  0  0  0  0  0  0  0  0  0  0  0
    3.5566    2.6280   11.1666 C   0  0  0  0  0  0  0  0  0  0  0  0
    3.1294    3.4499   10.1277 C   0  0  0  0  0  0  0  0  0  0  0  0
    1.7879    3.8078   10.0318 C   0  0  0  0  0  0  0  0  0  0  0  0
    0.8660    3.3707   10.9895 C   0  0  0  0  0  0  0  0  0  0  0  0
    1.3140    2.5576   12.0419 C   0  0  0  0  0  0  0  0  0  0  0  0
   -0.5783    3.7648   10.8956 C   0  0  0  0  0  0  0  0  0  0  0  0
   -1.2610    3.7179    9.8765 O   0  0  0  0  0  0  0  0  0  0  0  0
   -1.0553    4.1831   12.0683 N   0  0  0  0  0  0  0  0  0  0  0  0
   -2.4212    4.6362   12.3150 C   0  0  0  0  0  0  0  0  0  0  0  0
   -2.7024    5.4228   13.4257 C   0  0  0  0  0  0  0  0  0  0  0  0
   -4.0026    5.8541   13.6606 C   0  0  0  0  0  0  0  0  0  0  0  0
   -5.0215    5.4987   12.7847 C   0  0  0  0  0  0  0  0  0  0  0  0
   -4.7403    4.7121   11.6740 C   0  0  0  0  0  0  0  0  0  0  0  0
   -3.4401    4.2808   11.4391 C   0  0  0  0  0  0  0  0  0  0  0  0
   -5.8399    4.3286   10.7287 C   0  0  0  0  0  0  0  0  0  0  0  0
   -5.6116    3.6277    9.7316 O   0  0  0  0  0  0  0  0  0  0  0  0
   -6.9848    4.7354   10.9767 O   0  0  0  0  0  0  0  0  0  0  0  0
   -0.5664   -0.8256   14.2115 C   0  0  0  0  0  0  0  0  0  0  0  0
   -1.9389   -1.0760   14.0580 C   0  0  0  0  0  0  0  0  0  0  0  0
   -2.6991   -0.3052   13.2021 O   0  0  0  0  0  0  0  0  0  0  0  0
   -2.0020    0.6746   12.5251 C   0  0  0  0  0  0  0  0  0  0  0  0
   -3.7528   -4.0708   13.5508 H   0  0  0  0  0  0  0  0  0  0  0  0
   -4.0179   -2.5675   12.6505 H   0  0  0  0  0  0  0  0  0  0  0  0
   -5.3306   -3.2808   13.5889 H   0  0  0  0  0  0  0  0  0  0  0  0
   -2.2100   -3.6528   16.2607 H   0  0  0  0  0  0  0  0  0  0  0  0
    0.1911   -3.2101   16.5029 H   0  0  0  0  0  0  0  0  0  0  0  0
    2.0246   -1.8858   16.0475 H   0  0  0  0  0  0  0  0  0  0  0  0
    5.1701    2.0030   13.3719 H   0  0  0  0  0  0  0  0  0  0  0  0
    6.7656    0.9739   15.2897 H   0  0  0  0  0  0  0  0  0  0  0  0
    6.2089   -0.8330   17.3301 H   0  0  0  0  0  0  0  0  0  0  0  0
    4.5934    2.3309   11.2002 H   0  0  0  0  0  0  0  0  0  0  0  0
    3.8342    3.7939    9.3845 H   0  0  0  0  0  0  0  0  0  0  0  0
    1.4564    4.4350    9.2166 H   0  0  0  0  0  0  0  0  0  0  0  0
    0.6053    2.2130   12.7811 H   0  0  0  0  0  0  0  0  0  0  0  0
   -0.5302    4.2377   12.9293 H   0  0  0  0  0  0  0  0  0  0  0  0
   -1.9091    5.6994   14.1077 H   0  0  0  0  0  0  0  0  0  0  0  0
   -4.2216    6.4665   14.5254 H   0  0  0  0  0  0  0  0  0  0  0  0
   -6.0338    5.8345   12.9676 H   0  0  0  0  0  0  0  0  0  0  0  0
   -3.2211    3.6684   10.5743 H   0  0  0  0  0  0  0  0  0  0  0  0
   -0.1547   -0.0168   13.6337 H   0  0  0  0  0  0  0  0  0  0  0  0
   -2.6851    1.2257   11.8787 H   0  0  0  0  0  0  0  0  0  0  0  0
   -1.2218    0.2131   11.9198 H   0  0  0  0  0  0  0  0  0  0  0  0
   -1.5485    1.3591   13.2420 H   0  0  0  0  0  0  0  0  0  0  0  0
  1  2  1  0
  1 39  1  0
  1 40  1  0
  1 41  1  0
  2  3  1  0
  3  4  2  0
  3 36  1  0
  4  5  1  0
  4 42  1  0
  5  6  2  0
  5 43  1  0
  6  7  1  0
  6 35  1  0
  7  8  1  0
  7 44  1  0
  8  9  2  0
  8 16  1  0
  9 10  1  0
 10 11  2  0
 10 17  1  0
 11 12  1  0
 11 45  1  0
 12 13  1  0
 12 16  1  0
 13 14  2  0
 13 46  1  0
 14 15  1  0
 14 47  1  0
 15 16  2  0
 17 18  2  0
 17 22  1  0
 18 19  1  0
 18 48  1  0
 19 20  2  0
 19 49  1  0
 20 21  1  0
 20 50  1  0
 21 22  2  0
 21 23  1  0
 22 51  1  0
 23 24  2  0
 23 25  1  0
 25 26  1  0
 25 52  1  0
 26 27  2  0
 26 31  1  0
 27 28  1  0
 27 53  1  0
 28 29  2  0
 28 54  1  0
 29 30  1  0
 29 55  1  0
 30 31  2  0
 30 32  1  0
 31 56  1  0
 32 33  2  0
 32 34  1  0
 35 36  2  0
 35 57  1  0
 36 37  1  0
 37 38  1  0
 38 58  1  0
 38 59  1  0
 38 60  1  0
M  CHG  1  34  -1
M  END
>  <IC50[nM]>  (16) 
8.9000000000000004

>  <atom.dprop.PartialCharge>  (16) 
0.109781526 -0.32723582 0.081582166 -0.14748909 -0.1189615 0.12520161 -0.6996691 0.61215466 -0.62143946 0.16618547 -0.12266922 -0.066338465 -0.29133704 0.3250362 -0.6273801 0.26482192 -0.07739245 -0.08173649 -0.14021234 -0.09861502 -0.14886063 -0.0766162 0.67407274 -0.5736766 -0.47980928 0.03544864 -0.16505384 -0.14232318 -0.104517855 -0.11104775 -0.1331773 0.9113539 -0.81912404 -0.81912404 -0.12651667 0.08002855 -0.33376154 0.11495075 0.042406984 0.042406984 0.042406984 0.14131537 0.14167437 0.4387182 0.17468826 0.17877544 0.048555672 0.13768627 0.13766687 0.14165294 0.15141803 0.31328192 0.13042367 0.109705865 0.15405133 0.16095391 0.14683586 0.03961371 0.03961371 0.03961371

>  <experimental dG reference units>  (16) 
nM

>  <experimental dG reference field>  (16) 
IC50[nM]

>  <kJ/mol experimental dG>  (16) 
-46.238363489744664

>  <kcal/mol experimental dG>  (16) 
-11.051234103667463

>  <AmberAM1BCCCache>  (16) 
gASVzwQAAAAAAABdlCiMFm51bXB5Ll9jb3JlLm11bHRpYXJyYXmUjAZzY2FsYXKUk5SMBW51bXB5lIwFZHR5cGWUk5SMAmY4lImIh5RSlChLA4wBPJROTk5K/////0r/////SwB0lGJDCIW5ykGEMPU/lIaUUpRoA2gJQwhig+88nXkNwJSGlFKUaANoCUMIeVHTSzx37z+UhpRSlGgDaAlDCDVwrYRqPf6/lIaUUpRoA2gJQwiU6elKO2b5v5SGlFKUaANoCUMIZcNmkTHh+D+UhpRSlGgDaAlDCK3HDa9qiiDAlIaUUpRoA2gJQwjSQyZ/Jy8gQJSGlFKUaANoCUMINWRdeDPvIMCUhpRSlGgDaAlDCNv6kG2YpRVAlIaUUpRoA2gJQwg3ER/l9LsDwJSGlFKUaANoCUMIvAIY6zc64D+UhpRSlGgDaAlDCD8PqMAS0APAlIaUUpRoA2gJQwgenOrL7Fy2v5SGlFKUaANoCUMIULtArwopB8CUhpRSlGgDaAlDCMFkO+8CZwDAlIaUUpRoA2gJQwiFkLPagPP8v5SGlFKUaANoCUMIrc4tR2uO7r+UhpRSlGgDaAlDCPyzEWtnifu/lIaUUpRoA2gJQwjfqeIx2brxv5SGlFKUaANoCUMICXq3oZLD+b+UhpRSlGgDaAlDCGoHXmEPS+y/lIaUUpRoA2gJQwhzIf3bx1YfQJSGlFKUaANoCUMIWDDuTe+zHMCUhpRSlGgDaAlDCKPw5jSNCBXAlIaUUpRoA2gJQwhhqRCwu+q5P5SGlFKUaANoCUMI/Vbtseg+/7+UhpRSlGgDaAlDCIeqCbz26fu/lIaUUpRoA2gJQwgdPQZVSRH2v5SGlFKUaANoCUMIbf4nNLx79L+UhpRSlGgDaAlDCIeqCbz26fu/lIaUUpRoA2gJQwjNQDwG6WglQJSGlFKUaANoCUMIgzzrv92JI8CUhpRSlGgDaAlDCIM867/diSPAlIaUUpRoA2gJQwisnyx+JxgAwJSGlFKUaANoCUMIQDeJ8VVC9D+UhpRSlGgDaAlDCO15540s2g3AlIaUUpRoA2gJQwjzt54knED1P5SGlFKUaANoCUMI/zZhD0He3z+UhpRSlGgDaAlDCP82YQ9B3t8/lIaUUpRoA2gJQwj/NmEPQd7fP5SGlFKUaANoCUMIPAWd7I5W+j+UhpRSlGgDaAlDCHf15Mh99/o/lIaUUpRoA2gJQwi3HjoFeTcUQJSGlFKUaANoCUMIzRlg4ntZAUCUhpRSlGgDaAlDCDENAPk62gFAlIaUUpRoA2gJQwjkIKZlEBEBQJSGlFKUaANoCUMIA+zcGQ1Y+z+UhpRSlGgDaAlDCJIWgS2Ipfk/lIaUUpRoA2gJQwiO4tRqnLj7P5SGlFKUaANoCUMIury0rtk6/T+UhpRSlGgDaAlDCObiN2jjvw1AlIaUUpRoA2gJQwgD7NwZDVj7P5SGlFKUaANoCUMIg5HpEEG+9D+UhpRSlGgDaAlDCC/GvF1K2vw/lIaUUpRoA2gJQwjpykC1Aqr8P5SGlFKUaANoCUMIXtRIZHNJ/D+UhpRSlGgDaAlDCG9zh/2/JOA/lIaUUpRoA2gJQwhvc4f9vyTgP5SGlFKUaANoCUMIb3OH/b8k4D+UhpRSlGUu

$$$$
CHEMBL3265012
     RDKit          3D

 48 51  0  0  0  0  0  0  0  0999 V2000
   -4.2558   -3.1075   13.5651 C   0  0  0  0  0  0  0  0  0  0  0  0
   -3.8718   -2.3575   14.7067 O   0  0  0  0  0  0  0  0  0  0  0  0
   -2.5253   -2.1086   14.8120 C   0  0  0  0  0  0  0  0  0  0  0  0
   -1.7526   -2.8682   15.6804 C   0  0  0  0  0  0  0  0  0  0  0  0
   -0.3955   -2.6067   15.8218 C   0  0  0  0  0  0  0  0  0  0  0  0
    0.2199   -1.5810   15.0999 C   0  0  0  0  0  0  0  0  0  0  0  0
    1.6019   -1.3576   15.3437 N   0  0  0  0  0  0  0  0  0  0  0  0
    2.5286   -0.4382   14.7882 C   0  0  0  0  0  0  0  0  0  0  0  0
    2.1607    0.3911   13.7686 N   0  0  0  0  0  0  0  0  0  0  0  0
    3.1048    1.2259   13.2324 C   0  0  0  0  0  0  0  0  0  0  0  0
    4.4053    1.2717   13.7035 C   0  0  0  0  0  0  0  0  0  0  0  0
    4.7404    0.4886   14.7629 N   0  0  0  0  0  0  0  0  0  0  0  0
    5.8950    0.3907   15.4847 C   0  0  0  0  0  0  0  0  0  0  0  0
    5.6038   -0.5479   16.5103 C   0  0  0  0  0  0  0  0  0  0  0  0
    4.3901   -1.0599   16.3616 N   0  0  0  0  0  0  0  0  0  0  0  0
    3.8363   -0.3960   15.3347 C   0  0  0  0  0  0  0  0  0  0  0  0
    2.6462    2.1273   12.1323 C   0  0  0  0  0  0  0  0  0  0  0  0
    3.5538    2.6360   11.1838 C   0  0  0  0  0  0  0  0  0  0  0  0
    3.1137    3.4699   10.1556 C   0  0  0  0  0  0  0  0  0  0  0  0
    1.7615    3.8212   10.0639 C   0  0  0  0  0  0  0  0  0  0  0  0
    1.3043    4.7272    8.9268 C   0  0  0  0  0  0  0  0  0  0  0  0
    2.1134    5.3522    8.2339 O   0  0  0  0  0  0  0  0  0  0  0  0
   -0.0095    4.7686    8.7196 N   0  0  0  0  0  0  0  0  0  0  0  0
    0.8533    3.3219   11.0251 C   0  0  0  0  0  0  0  0  0  0  0  0
   -0.4584    3.6572   10.9807 F   0  0  0  0  0  0  0  0  0  0  0  0
    1.2985    2.4859   12.0366 C   0  0  0  0  0  0  0  0  0  0  0  0
   -0.5548   -0.8117   14.1978 C   0  0  0  0  0  0  0  0  0  0  0  0
   -1.9397   -1.0798   14.0626 C   0  0  0  0  0  0  0  0  0  0  0  0
   -2.7418   -0.3359   13.2115 O   0  0  0  0  0  0  0  0  0  0  0  0
   -2.2196    0.7089   12.4090 C   0  0  0  0  0  0  0  0  0  0  0  0
   -5.3371   -3.2496   13.5811 H   0  0  0  0  0  0  0  0  0  0  0  0
   -3.7876   -4.0927   13.5589 H   0  0  0  0  0  0  0  0  0  0  0  0
   -4.0021   -2.5904   12.6387 H   0  0  0  0  0  0  0  0  0  0  0  0
   -2.2126   -3.6572   16.2596 H   0  0  0  0  0  0  0  0  0  0  0  0
    0.1938   -3.1989   16.5120 H   0  0  0  0  0  0  0  0  0  0  0  0
    1.9968   -1.9524   16.0600 H   0  0  0  0  0  0  0  0  0  0  0  0
    5.1643    1.9375   13.3203 H   0  0  0  0  0  0  0  0  0  0  0  0
    6.7745    0.9863   15.2762 H   0  0  0  0  0  0  0  0  0  0  0  0
    6.2506   -0.8438   17.3184 H   0  0  0  0  0  0  0  0  0  0  0  0
    4.6006    2.3663   11.2383 H   0  0  0  0  0  0  0  0  0  0  0  0
    3.8176    3.8358    9.4198 H   0  0  0  0  0  0  0  0  0  0  0  0
   -0.3831    5.3154    7.9569 H   0  0  0  0  0  0  0  0  0  0  0  0
   -0.6305    4.2313    9.2991 H   0  0  0  0  0  0  0  0  0  0  0  0
    0.5971    2.1203   12.7706 H   0  0  0  0  0  0  0  0  0  0  0  0
   -0.1130   -0.0200   13.6277 H   0  0  0  0  0  0  0  0  0  0  0  0
   -3.0413    1.1202   11.8191 H   0  0  0  0  0  0  0  0  0  0  0  0
   -1.4622    0.3434   11.7132 H   0  0  0  0  0  0  0  0  0  0  0  0
   -1.8206    1.5118   13.0307 H   0  0  0  0  0  0  0  0  0  0  0  0
  1  2  1  0
  1 31  1  0
  1 32  1  0
  1 33  1  0
  2  3  1  0
  3  4  2  0
  3 28  1  0
  4  5  1  0
  4 34  1  0
  5  6  2  0
  5 35  1  0
  6  7  1  0
  6 27  1  0
  7  8  1  0
  7 36  1  0
  8  9  2  0
  8 16  1  0
  9 10  1  0
 10 11  2  0
 10 17  1  0
 11 12  1  0
 11 37  1  0
 12 13  1  0
 12 16  1  0
 13 14  2  0
 13 38  1  0
 14 15  1  0
 14 39  1  0
 15 16  2  0
 17 18  2  0
 17 26  1  0
 18 19  1  0
 18 40  1  0
 19 20  2  0
 19 41  1  0
 20 21  1  0
 20 24  1  0
 21 22  2  0
 21 23  1  0
 23 42  1  0
 23 43  1  0
 24 25  1  0
 24 26  2  0
 26 44  1  0
 27 28  2  0
 27 45  1  0
 28 29  1  0
 29 30  1  0
 30 46  1  0
 30 47  1  0
 30 48  1  0
M  END
>  <IC50[nM]>  (17) 
18.600000000000001

>  <atom.dprop.PartialCharge>  (17) 
0.11315131 -0.32386556 0.084951885 -0.14411905 -0.11559162 0.12857121 -0.6962979 0.61537087 -0.61619306 0.15363437 -0.114120655 -0.063223764 -0.28796688 0.32840556 -0.62400895 0.2681917 -0.032433856 -0.12305364 -0.08022476 -0.16361272 0.6785213 -0.59089977 -0.67280984 0.16090898 -0.12398465 -0.14779577 -0.12314665 0.083398275 -0.33039126 0.1183205 0.04577687 0.04577687 0.04577687 0.14468537 0.1450444 0.44208816 0.1781716 0.18214548 0.051925577 0.14446762 0.15067013 0.31469434 0.31469434 0.15524024 0.1502059 0.04298359 0.04298359 0.04298359

>  <experimental dG reference units>  (17) 
nM

>  <experimental dG reference field>  (17) 
IC50[nM]

>  <kJ/mol experimental dG>  (17) 
-44.39974992367665

>  <kcal/mol experimental dG>  (17) 
-10.611794914836675

>  <AmberAM1BCCCache>  (17) 
gASV6wMAAAAAAABdlCiMFm51bXB5Ll9jb3JlLm11bHRpYXJyYXmUjAZzY2FsYXKUk5SMBW51bXB5lIwFZHR5cGWUk5SMAmY4lImIh5RSlChLA4wBPJROTk5K/////0r/////SwB0lGJDCK2sLINLrvQ/lIaUUpRoA2gJQwj3puy3/5AMwJSGlFKUaANoCUMIvTvPcxYP8z+UhpRSlGgDaAlDCFN4x+vq7/6/lIaUUpRoA2gJQwijD0jc9eb4v5SGlFKUaANoCUMIztq8cdPs9j+UhpRSlGgDaAlDCLMI8bu6oCDAlIaUUpRoA2gJQwjV8yBdurEgQJSGlFKUaANoCUMIix0K9/dTIcCUhpRSlGgDaAlDCEGESSdLBBVAlIaUUpRoA2gJQwgPFkInKQ0EwJSGlFKUaANoCUMInPEnI68p3T+UhpRSlGgDaAlDCFUeacCruAPAlIaUUpRoA2gJQwhg5Td1oGaRv5SGlFKUaANoCUMIrt/TOGE4BsCUhpRSlGgDaAlDCIltTHr7jwDAlIaUUpRoA2gJQwjJ5j5qOVLwv5SGlFKUaANoCUMItciLuyi7+7+UhpRSlGgDaAlDCKTR2qENRea/lIaUUpRoA2gJQwjmALmwuZ3/v5SGlFKUaANoCUMIoJH1wvi2H0CUhpRSlGgDaAlDCPOz4IR30BzAlIaUUpRoA2gJQwiRkh5BwiofwJSGlFKUaANoCUMIbzmfer9R+z+UhpRSlGgDaAlDCPRLZNGmlPq/lIaUUpRoA2gJQwj/97MmXNj5v5SGlFKUaANoCUMIJ6KNlH+BAMCUhpRSlGgDaAlDCAADn1lyUvU/lIaUUpRoA2gJQwg9omhgR8EMwJSGlFKUaANoCUMIrawsg0uu9D+UhpRSlGgDaAlDCG93He8LuOA/lIaUUpRoA2gJQwhvdx3vC7jgP5SGlFKUaANoCUMIb3cd7wu44D+UhpRSlGgDaAlDCL7gani8xfo/lIaUUpRoA2gJQwjv7vZ+5TT6P5SGlFKUaANoCUMIQpH0F4Z/FECUhpRSlGgDaAlDCP0fcWyglwBAlIaUUpRoA2gJQwieA1lfTrkBQJSGlFKUaANoCUMI+wUbiyqhAUCUhpRSlGgDaAlDCErXYslLJvs/lIaUUpRoA2gJQwjPZQKVA63/P5SGlFKUaANoCUMIz9N2aErXDUCUhpRSlGgDaAlDCM/TdmhK1w1AlIaUUpRoA2gJQwgtLv1yyQYAQJSGlFKUaANoCUMI67pKvPlH/D+UhpRSlGgDaAlDCLAIqv9a+OA/lIaUUpRoA2gJQwiwCKr/WvjgP5SGlFKUaANoCUMIsAiq/1r44D+UhpRSlGUu

$$$$
CHEMBL3265018
     RDKit          3D

 47 51  0  0  0  0  0  0  0  0999 V2000
   -4.2567   -3.1043   13.5693 C   0  0  0  0  0  0  0  0  0  0  0  0
   -3.8736   -2.3603   14.7157 O   0  0  0  0  0  0  0  0  0  0  0  0
   -2.5257   -2.1109   14.8170 C   0  0  0  0  0  0  0  0  0  0  0  0
   -1.7457   -2.8699   15.6819 C   0  0  0  0  0  0  0  0  0  0  0  0
   -0.3904   -2.6103   15.8138 C   0  0  0  0  0  0  0  0  0  0  0  0
    0.2205   -1.5845   15.0866 C   0  0  0  0  0  0  0  0  0  0  0  0
    1.6039   -1.3601   15.3216 N   0  0  0  0  0  0  0  0  0  0  0  0
    2.5369   -0.4474   14.7595 C   0  0  0  0  0  0  0  0  0  0  0  0
    2.1817    0.3719   13.7240 N   0  0  0  0  0  0  0  0  0  0  0  0
    3.1138    1.2387   13.2179 C   0  0  0  0  0  0  0  0  0  0  0  0
    4.4187    1.2840   13.7027 C   0  0  0  0  0  0  0  0  0  0  0  0
    4.7466    0.4880   14.7600 N   0  0  0  0  0  0  0  0  0  0  0  0
    5.8977    0.3770   15.4865 C   0  0  0  0  0  0  0  0  0  0  0  0
    5.5876   -0.5233   16.5295 C   0  0  0  0  0  0  0  0  0  0  0  0
    4.3760   -1.0434   16.3734 N   0  0  0  0  0  0  0  0  0  0  0  0
    3.8370   -0.3940   15.3257 C   0  0  0  0  0  0  0  0  0  0  0  0
    2.6359    2.1614   12.1223 C   0  0  0  0  0  0  0  0  0  0  0  0
    1.3054    2.6314   12.1303 C   0  0  0  0  0  0  0  0  0  0  0  0
    0.8262    3.5165   11.1628 C   0  0  0  0  0  0  0  0  0  0  0  0
    1.7006    3.9330   10.1707 C   0  0  0  0  0  0  0  0  0  0  0  0
    1.4948    4.8131    9.1162 N   0  0  0  0  0  0  0  0  0  0  0  0
    2.6280    4.8521    8.4793 C   0  0  0  0  0  0  0  0  0  0  0  0
    3.5731    4.0579    9.0246 N   0  0  0  0  0  0  0  0  0  0  0  0
    3.0312    3.4473   10.1317 C   0  0  0  0  0  0  0  0  0  0  0  0
    3.5261    2.5537   11.0860 C   0  0  0  0  0  0  0  0  0  0  0  0
   -0.5552   -0.8189   14.1920 C   0  0  0  0  0  0  0  0  0  0  0  0
   -1.9445   -1.0884   14.0613 C   0  0  0  0  0  0  0  0  0  0  0  0
   -2.7533   -0.3562   13.2050 O   0  0  0  0  0  0  0  0  0  0  0  0
   -2.2327    0.6448   12.3521 C   0  0  0  0  0  0  0  0  0  0  0  0
   -5.3358   -3.2523   13.5866 H   0  0  0  0  0  0  0  0  0  0  0  0
   -3.7891   -4.0896   13.5591 H   0  0  0  0  0  0  0  0  0  0  0  0
   -4.0124   -2.5806   12.6438 H   0  0  0  0  0  0  0  0  0  0  0  0
   -2.1936   -3.6623   16.2628 H   0  0  0  0  0  0  0  0  0  0  0  0
    0.1988   -3.2068   16.4980 H   0  0  0  0  0  0  0  0  0  0  0  0
    1.9908   -1.9341   16.0530 H   0  0  0  0  0  0  0  0  0  0  0  0
    5.1808    1.9634   13.3425 H   0  0  0  0  0  0  0  0  0  0  0  0
    6.7856    0.9484   15.2760 H   0  0  0  0  0  0  0  0  0  0  0  0
    6.2287   -0.7926   17.3523 H   0  0  0  0  0  0  0  0  0  0  0  0
    0.6366    2.3172   12.9226 H   0  0  0  0  0  0  0  0  0  0  0  0
   -0.1813    3.8713   11.1916 H   0  0  0  0  0  0  0  0  0  0  0  0
    2.8538    5.4380    7.6007 H   0  0  0  0  0  0  0  0  0  0  0  0
    4.5054    3.9747    8.6412 H   0  0  0  0  0  0  0  0  0  0  0  0
    4.5263    2.1799   11.0411 H   0  0  0  0  0  0  0  0  0  0  0  0
   -0.1081   -0.0326   13.6249 H   0  0  0  0  0  0  0  0  0  0  0  0
   -3.0507    1.0730   11.7701 H   0  0  0  0  0  0  0  0  0  0  0  0
   -1.5099    0.2344   11.6497 H   0  0  0  0  0  0  0  0  0  0  0  0
   -1.7820    1.4500   12.9277 H   0  0  0  0  0  0  0  0  0  0  0  0
  1  2  1  0
  1 30  1  0
  1 31  1  0
  1 32  1  0
  2  3  1  0
  3  4  2  0
  3 27  1  0
  4  5  1  0
  4 33  1  0
  5  6  2  0
  5 34  1  0
  6  7  1  0
  6 26  1  0
  7  8  1  0
  7 35  1  0
  8  9  2  0
  8 16  1  0
  9 10  1  0
 10 11  2  0
 10 17  1  0
 11 12  1  0
 11 36  1  0
 12 13  1  0
 12 16  1  0
 13 14  2  0
 13 37  1  0
 14 15  1  0
 14 38  1  0
 15 16  2  0
 17 18  2  0
 17 25  1  0
 18 19  1  0
 18 39  1  0
 19 20  2  0
 19 40  1  0
 20 21  1  0
 20 24  1  0
 21 22  2  0
 22 23  1  0
 22 41  1  0
 23 24  1  0
 23 42  1  0
 24 25  2  0
 25 43  1  0
 26 27  2  0
 26 44  1  0
 27 28  1  0
 28 29  1  0
 29 45  1  0
 29 46  1  0
 29 47  1  0
M  END
>  <IC50[nM]>  (18) 
6.2999999999999998

>  <atom.dprop.PartialCharge>  (18) 
0.11225024 -0.32476676 0.084050834 -0.14502019 -0.11649272 0.12767018 -0.6973153 0.61432576 -0.6216943 0.15915176 -0.1188426 -0.0650858 -0.2887651 0.3275046 -0.62491035 0.2671425 -0.051407397 -0.123288415 -0.06720957 0.066198096 -0.56387216 0.5396247 -0.68765104 0.065722436 -0.11589071 -0.124047786 0.082497224 -0.33129245 0.117419444 0.044875775 0.044875775 0.044875775 0.14378425 0.14414327 0.44118705 0.17670543 0.18124434 0.051024474 0.13704564 0.1484686 0.07050532 0.45957386 0.14013301 0.14930476 0.042082496 0.042082496 0.042082496

>  <experimental dG reference units>  (18) 
nM

>  <experimental dG reference field>  (18) 
IC50[nM]

>  <kJ/mol experimental dG>  (18) 
-47.10016667593532

>  <kcal/mol experimental dG>  (18) 
-11.257210008588746

>  <AmberAM1BCCCache>  (18) 
gASV2AMAAAAAAABdlCiMFm51bXB5Ll9jb3JlLm11bHRpYXJyYXmUjAZzY2FsYXKUk5SMBW51bXB5lIwFZHR5cGWUk5SMAmY4lImIh5RSlChLA4wBPJROTk5K/////0r/////SwB0lGJDCGD4IaJlcPU/lIaUUpRoA2gJQwjTt/NbSRwPwJSGlFKUaANoCUMIa1CaZFjP6j+UhpRSlGgDaAlDCCwjyh1gjv6/lIaUUpRoA2gJQwhmzVpsTMT3v5SGlFKUaANoCUMI4ELKnT+N9j+UhpRSlGgDaAlDCEjcX0GkpiDAlIaUUpRoA2gJQwhuIZPtvp8gQJSGlFKUaANoCUMIrPQbvqs1IcCUhpRSlGgDaAlDCP7IeqioxRVAlIaUUpRoA2gJQwhKQ2HYxHYFwJSGlFKUaANoCUMISX1ucSra4D+UhpRSlGgDaAlDCNhgWvsESQTAlIaUUpRoA2gJQwh18O64yqWkv5SGlFKUaANoCUMIjiSHn5awBsCUhpRSlGgDaAlDCIG5RWTFvwDAlIaUUpRoA2gJQwjc8Lj8Mlr2v5SGlFKUaANoCUMIaQEHLzix9b+UhpRSlGgDaAlDCI+GV2Z86+u/lIaUUpRoA2gJQwjPyv8i/g3sP5SGlFKUaANoCUMI3JPuqe6YGsCUhpRSlGgDaAlDCKIPEerK+RNAlIaUUpRoA2gJQwhJRgH1e3gLwJSGlFKUaANoCUMIU7IlKShC7r+UhpRSlGgDaAlDCGbNWmxMxPe/lIaUUpRoA2gJQwhmzVpsTMT3v5SGlFKUaANoCUMIcYfEkjDR8z+UhpRSlGgDaAlDCBezbwSRTA/AlIaUUpRoA2gJQwjSzX2O6iL3P5SGlFKUaANoCUMIqTQo6QK64D+UhpRSlGgDaAlDCKk0KOkCuuA/lIaUUpRoA2gJQwipNCjpArrgP5SGlFKUaANoCUMI0Uh4pChm+j+UhpRSlGgDaAlDCNFIeKQoZvo/lIaUUpRoA2gJQwiM5nPL6JcUQJSGlFKUaANoCUMIBdR3gtZnAECUhpRSlGgDaAlDCKa3X3WEiQFAlIaUUpRoA2gJQwhhvOPMPFkBQJSGlFKUaANoCUMIzBTM4Tx5/D+UhpRSlGgDaAlDCFcLxDLM2fw/lIaUUpRoA2gJQwgewyRI0VHqP5SGlFKUaANoCUMIQTaP/xHTDECUhpRSlGgDaAlDCLpbiAIKpfk/lIaUUpRoA2gJQwj47qslevv9P5SGlFKUaANoCUMINCsgOpIa4T+UhpRSlGgDaAlDCDQrIDqSGuE/lIaUUpRoA2gJQwg0KyA6khrhP5SGlFKUZS4=

$$$$
CHEMBL3264999
     RDKit          3D

 62 66  0  0  0  0  0  0  0  0999 V2000
   -4.2555   -3.1029   13.5707 C   0  0  0  0  0  0  0  0  0  0  0  0
   -3.8740   -2.3535   14.7166 O   0  0  0  0  0  0  0  0  0  0  0  0
   -2.5261   -2.1057   14.8053 C   0  0  0  0  0  0  0  0  0  0  0  0
   -1.7497   -2.8673   15.6804 C   0  0  0  0  0  0  0  0  0  0  0  0
   -0.3863   -2.6106   15.8150 C   0  0  0  0  0  0  0  0  0  0  0  0
    0.2220   -1.5829   15.0890 C   0  0  0  0  0  0  0  0  0  0  0  0
    1.5930   -1.3491   15.3060 N   0  0  0  0  0  0  0  0  0  0  0  0
    2.5452   -0.4689   14.7536 C   0  0  0  0  0  0  0  0  0  0  0  0
    2.2178    0.3551   13.7190 N   0  0  0  0  0  0  0  0  0  0  0  0
    3.1227    1.2406   13.2181 C   0  0  0  0  0  0  0  0  0  0  0  0
    4.4207    1.3039   13.7175 C   0  0  0  0  0  0  0  0  0  0  0  0
    4.7482    0.4921   14.7654 N   0  0  0  0  0  0  0  0  0  0  0  0
    5.8898    0.3836   15.5035 C   0  0  0  0  0  0  0  0  0  0  0  0
    5.5715   -0.5089   16.5177 C   0  0  0  0  0  0  0  0  0  0  0  0
    4.3818   -1.0543   16.3920 N   0  0  0  0  0  0  0  0  0  0  0  0
    3.8330   -0.4170   15.3252 C   0  0  0  0  0  0  0  0  0  0  0  0
    2.6564    2.1560   12.1340 C   0  0  0  0  0  0  0  0  0  0  0  0
    3.5566    2.6280   11.1666 C   0  0  0  0  0  0  0  0  0  0  0  0
    3.1294    3.4499   10.1277 C   0  0  0  0  0  0  0  0  0  0  0  0
    1.7879    3.8078   10.0318 C   0  0  0  0  0  0  0  0  0  0  0  0
    0.8660    3.3707   10.9895 C   0  0  0  0  0  0  0  0  0  0  0  0
    1.3140    2.5576   12.0419 C   0  0  0  0  0  0  0  0  0  0  0  0
   -0.5783    3.7648   10.8956 C   0  0  0  0  0  0  0  0  0  0  0  0
   -1.2921    3.6116    9.9088 O   0  0  0  0  0  0  0  0  0  0  0  0
   -1.0169    4.3144   12.0284 N   0  0  0  0  0  0  0  0  0  0  0  0
   -2.3720    4.8041   12.2640 C   0  0  0  0  0  0  0  0  0  0  0  0
   -3.4192    4.3632   11.4637 C   0  0  0  0  0  0  0  0  0  0  0  0
   -4.7092    4.8293   11.6879 C   0  0  0  0  0  0  0  0  0  0  0  0
   -4.9520    5.7363   12.7126 C   0  0  0  0  0  0  0  0  0  0  0  0
   -3.9048    6.1772   13.5130 C   0  0  0  0  0  0  0  0  0  0  0  0
   -2.6148    5.7111   13.2887 C   0  0  0  0  0  0  0  0  0  0  0  0
   -6.3442    6.2394   12.9547 C   0  0  0  0  0  0  0  0  0  0  0  0
   -7.2606    6.2094   12.1385 O   0  0  0  0  0  0  0  0  0  0  0  0
   -6.4851    6.7362   14.1839 N   0  0  0  0  0  0  0  0  0  0  0  0
   -0.5664   -0.8256   14.2115 C   0  0  0  0  0  0  0  0  0  0  0  0
   -1.9389   -1.0760   14.0580 C   0  0  0  0  0  0  0  0  0  0  0  0
   -2.6991   -0.3052   13.2021 O   0  0  0  0  0  0  0  0  0  0  0  0
   -2.0020    0.6746   12.5251 C   0  0  0  0  0  0  0  0  0  0  0  0
   -3.7528   -4.0708   13.5508 H   0  0  0  0  0  0  0  0  0  0  0  0
   -4.0179   -2.5675   12.6505 H   0  0  0  0  0  0  0  0  0  0  0  0
   -5.3306   -3.2808   13.5889 H   0  0  0  0  0  0  0  0  0  0  0  0
   -2.2100   -3.6528   16.2607 H   0  0  0  0  0  0  0  0  0  0  0  0
    0.1911   -3.2101   16.5029 H   0  0  0  0  0  0  0  0  0  0  0  0
    2.0246   -1.8858   16.0475 H   0  0  0  0  0  0  0  0  0  0  0  0
    5.1701    2.0030   13.3719 H   0  0  0  0  0  0  0  0  0  0  0  0
    6.7656    0.9739   15.2897 H   0  0  0  0  0  0  0  0  0  0  0  0
    6.2089   -0.8330   17.3301 H   0  0  0  0  0  0  0  0  0  0  0  0
    4.5934    2.3309   11.2002 H   0  0  0  0  0  0  0  0  0  0  0  0
    3.8342    3.7939    9.3845 H   0  0  0  0  0  0  0  0  0  0  0  0
    1.4564    4.4350    9.2166 H   0  0  0  0  0  0  0  0  0  0  0  0
    0.6053    2.2130   12.7811 H   0  0  0  0  0  0  0  0  0  0  0  0
   -0.4654    4.4592   12.8620 H   0  0  0  0  0  0  0  0  0  0  0  0
   -3.2302    3.6570   10.6659 H   0  0  0  0  0  0  0  0  0  0  0  0
   -5.5245    4.4860   11.0648 H   0  0  0  0  0  0  0  0  0  0  0  0
   -4.0938    6.8834   14.3107 H   0  0  0  0  0  0  0  0  0  0  0  0
   -1.7995    6.0544   13.9118 H   0  0  0  0  0  0  0  0  0  0  0  0
   -7.3345    7.1291   14.5640 H   0  0  0  0  0  0  0  0  0  0  0  0
   -5.7598    6.7805   14.8854 H   0  0  0  0  0  0  0  0  0  0  0  0
   -0.1547   -0.0168   13.6337 H   0  0  0  0  0  0  0  0  0  0  0  0
   -2.6851    1.2257   11.8787 H   0  0  0  0  0  0  0  0  0  0  0  0
   -1.2218    0.2131   11.9198 H   0  0  0  0  0  0  0  0  0  0  0  0
   -1.5485    1.3591   13.2420 H   0  0  0  0  0  0  0  0  0  0  0  0
  1  2  1  0
  1 39  1  0
  1 40  1  0
  1 41  1  0
  2  3  1  0
  3  4  2  0
  3 36  1  0
  4  5  1  0
  4 42  1  0
  5  6  2  0
  5 43  1  0
  6  7  1  0
  6 35  1  0
  7  8  1  0
  7 44  1  0
  8  9  2  0
  8 16  1  0
  9 10  1  0
 10 11  2  0
 10 17  1  0
 11 12  1  0
 11 45  1  0
 12 13  1  0
 12 16  1  0
 13 14  2  0
 13 46  1  0
 14 15  1  0
 14 47  1  0
 15 16  2  0
 17 18  2  0
 17 22  1  0
 18 19  1  0
 18 48  1  0
 19 20  2  0
 19 49  1  0
 20 21  1  0
 20 50  1  0
 21 22  2  0
 21 23  1  0
 22 51  1  0
 23 24  2  0
 23 25  1  0
 25 26  1  0
 25 52  1  0
 26 27  2  0
 26 31  1  0
 27 28  1  0
 27 53  1  0
 28 29  2  0
 28 54  1  0
 29 30  1  0
 29 32  1  0
 30 31  2  0
 30 55  1  0
 31 56  1  0
 32 33  2  0
 32 34  1  0
 34 57  1  0
 34 58  1  0
 35 36  2  0
 35 59  1  0
 36 37  1  0
 37 38  1  0
 38 60  1  0
 38 61  1  0
 38 62  1  0
M  END
>  <IC50[nM]>  (19) 
4.2999999999999998

>  <atom.dprop.PartialCharge>  (19) 
0.11301815 -0.32399872 0.084818736 -0.14425223 -0.11572479 0.12843806 -0.6964311 0.61539125 -0.6182018 0.16942166 -0.11943239 -0.06310171 -0.28810003 0.32827243 -0.62414217 0.26805854 -0.07415572 -0.07849993 -0.13697559 -0.09537837 -0.14440495 -0.073379524 0.6849423 -0.5716383 -0.4842096 0.07606109 -0.1584065 -0.07070136 -0.1638183 -0.07070136 -0.1584065 0.6720252 -0.60953873 -0.67757756 -0.123279825 0.08326512 -0.33052444 0.11818735 0.04564371 0.04564371 0.04564371 0.1445522 0.14491123 0.441955 0.17792511 0.18201232 0.051792413 0.14092314 0.14090377 0.1448898 0.15465486 0.31601885 0.14786898 0.14810327 0.14810327 0.14786898 0.3125214 0.3125214 0.15007272 0.042850435 0.042850435 0.042850435

>  <experimental dG reference units>  (19) 
nM

>  <experimental dG reference field>  (19) 
IC50[nM]

>  <kJ/mol experimental dG>  (19) 
-48.05284655679917

>  <kcal/mol experimental dG>  (19) 
-11.484905964818156

>  <AmberAM1BCCCache>  (19) 
gASV9QQAAAAAAABdlCiMFm51bXB5Ll9jb3JlLm11bHRpYXJyYXmUjAZzY2FsYXKUk5SMBW51bXB5lIwFZHR5cGWUk5SMAmY4lImIh5RSlChLA4wBPJROTk5K/////0r/////SwB0lGJDCEMQCGU53/Q/lIaUUpRoA2gJQwjP8jybrJAMwJSGlFKUaANoCUMI+LY+C55O8j+UhpRSlGgDaAlDCL4U7An9vv6/lIaUUpRoA2gJQwhqlNhEbqf5v5SGlFKUaANoCUMIvyYEnicP+D+UhpRSlGgDaAlDCBGb1OmupiDAlIaUUpRoA2gJQwhugBjcVbYgQJSGlFKUaANoCUMIUi/9GfVfIcCUhpRSlGgDaAlDCFuW8qHtVRVAlIaUUpRoA2gJQwhn2zySOE8EwJSGlFKUaANoCUMIBm2FTIWu3j+UhpRSlGgDaAlDCMbqqa5PsgPAlIaUUpRoA2gJQwjPolw8/E6dv5SGlFKUaANoCUMIKSli8DFQBsCUhpRSlGgDaAlDCAW32jHMpwDAlIaUUpRoA2gJQwiBjnPXx+P5v5SGlFKUaANoCUMI6KvTB8uo6b+UhpRSlGgDaAlDCAp4wDccyfq/lIaUUpRoA2gJQwjqRpAs3Yjyv5SGlFKUaANoCUMIht8VmODI/L+UhpRSlGgDaAlDCP6Yw6npaeq/lIaUUpRoA2gJQwiIMDLG4REgQJSGlFKUaANoCUMIuUSlj8QaG8CUhpRSlGgDaAlDCKu/DXN9MxbAlIaUUpRoA2gJQwgnxcoRx73xP5SGlFKUaANoCUMIrVu+JEI8AcCUhpRSlGgDaAlDCOvff8q2lee/lIaUUpRoA2gJQwgcviC1YF8AwJSGlFKUaANoCUMI699/yraV57+UhpRSlGgDaAlDCK1bviRCPAHAlIaUUpRoA2gJQwhXaYslRs8fQJSGlFKUaANoCUMIw5rxhkDHHMCUhpRSlGgDaAlDCPCneICT0x/AlIaUUpRoA2gJQwj/4DKH8QUBwJSGlFKUaANoCUMITl5Tot3X9T+UhpRSlGgDaAlDCBTuuEP0wAzAlIaUUpRoA2gJQwj9FIy88a70P5SGlFKUaANoCUMIJJoqmfB44D+UhpRSlGgDaAlDCCSaKpnweOA/lIaUUpRoA2gJQwgkmiqZ8HjgP5SGlFKUaANoCUMIyE1OCRuW+j+UhpRSlGgDaAlDCD9XVriLNfo/lIaUUpRoA2gJQwhXa0ymr38UQJSGlFKUaANoCUMI61XyqdiFAECUhpRSlGgDaAlDCMa3CHyhuQFAlIaUUpRoA2gJQwiAvIzTWYkBQJSGlFKUaANoCUMI2waS6E1q/T+UhpRSlGgDaAlDCA5JyrFixvo/lIaUUpRoA2gJQwgoXbslMvn5P5SGlFKUaANoCUMIZv2JOd3K/T+UhpRSlGgDaAlDCIN+HtYsOA5AlIaUUpRoA2gJQwigiGMJM1j9P5SGlFKUaANoCUMIo69k2+PJ+z+UhpRSlGgDaAlDCKOvZNvjyfs/lIaUUpRoA2gJQwigiGMJM1j9P5SGlFKUaANoCUMI+JTRddhSDUCUhpRSlGgDaAlDCPiU0XXYUg1AlIaUUpRoA2gJQwj0Jy5NWBj8P5SGlFKUaANoCUMIorKDgrcB4T+UhpRSlGgDaAlDCKKyg4K3AeE/lIaUUpRoA2gJQwiisoOCtwHhP5SGlFKUZS4=

$$$$
CHEMBL3265026
     RDKit          3D

 51 55  0  0  0  0  0  0  0  0999 V2000
   -4.2568   -3.1047   13.5691 C   0  0  0  0  0  0  0  0  0  0  0  0
   -3.8735   -2.3611   14.7159 O   0  0  0  0  0  0  0  0  0  0  0  0
   -2.5255   -2.1111   14.8166 C   0  0  0  0  0  0  0  0  0  0  0  0
   -1.7467   -2.8699   15.6815 C   0  0  0  0  0  0  0  0  0  0  0  0
   -0.3906   -2.6103   15.8137 C   0  0  0  0  0  0  0  0  0  0  0  0
    0.2208   -1.5857   15.0868 C   0  0  0  0  0  0  0  0  0  0  0  0
    1.6032   -1.3595   15.3238 N   0  0  0  0  0  0  0  0  0  0  0  0
    2.5348   -0.4457   14.7641 C   0  0  0  0  0  0  0  0  0  0  0  0
    2.1779    0.3778   13.7292 N   0  0  0  0  0  0  0  0  0  0  0  0
    3.1185    1.2359   13.2212 C   0  0  0  0  0  0  0  0  0  0  0  0
    4.4181    1.2809   13.7047 C   0  0  0  0  0  0  0  0  0  0  0  0
    4.7461    0.4870   14.7618 N   0  0  0  0  0  0  0  0  0  0  0  0
    5.8981    0.3788   15.4858 C   0  0  0  0  0  0  0  0  0  0  0  0
    5.5910   -0.5280   16.5270 C   0  0  0  0  0  0  0  0  0  0  0  0
    4.3781   -1.0445   16.3723 N   0  0  0  0  0  0  0  0  0  0  0  0
    3.8363   -0.3925   15.3256 C   0  0  0  0  0  0  0  0  0  0  0  0
    2.6611    2.1501   12.1240 C   0  0  0  0  0  0  0  0  0  0  0  0
    3.5712    2.6353   11.1629 C   0  0  0  0  0  0  0  0  0  0  0  0
    3.1347    3.4612   10.1202 C   0  0  0  0  0  0  0  0  0  0  0  0
    1.7926    3.8149   10.0376 C   0  0  0  0  0  0  0  0  0  0  0  0
    1.4009    4.6318    8.9894 O   0  0  0  0  0  0  0  0  0  0  0  0
    0.0085    4.5902    8.6762 C   0  0  0  0  0  0  0  0  0  0  0  0
   -0.8186    4.7372    9.9574 C   0  0  0  0  0  0  0  0  0  0  0  0
   -0.4761    3.7058   10.9290 N   0  0  0  0  0  0  0  0  0  0  0  0
    0.8817    3.3521   10.9992 C   0  0  0  0  0  0  0  0  0  0  0  0
    1.3168    2.5380   12.0350 C   0  0  0  0  0  0  0  0  0  0  0  0
   -0.5547   -0.8194   14.1898 C   0  0  0  0  0  0  0  0  0  0  0  0
   -1.9431   -1.0889   14.0597 C   0  0  0  0  0  0  0  0  0  0  0  0
   -2.7507   -0.3535   13.2059 O   0  0  0  0  0  0  0  0  0  0  0  0
   -2.2107    0.5014   12.2156 C   0  0  0  0  0  0  0  0  0  0  0  0
   -5.3360   -3.2526   13.5865 H   0  0  0  0  0  0  0  0  0  0  0  0
   -3.7882   -4.0895   13.5586 H   0  0  0  0  0  0  0  0  0  0  0  0
   -4.0119   -2.5815   12.6433 H   0  0  0  0  0  0  0  0  0  0  0  0
   -2.1972   -3.6612   16.2628 H   0  0  0  0  0  0  0  0  0  0  0  0
    0.1988   -3.2050   16.4994 H   0  0  0  0  0  0  0  0  0  0  0  0
    1.9921   -1.9379   16.0547 H   0  0  0  0  0  0  0  0  0  0  0  0
    5.1792    1.9587   13.3427 H   0  0  0  0  0  0  0  0  0  0  0  0
    6.7836    0.9552   15.2767 H   0  0  0  0  0  0  0  0  0  0  0  0
    6.2332   -0.8019   17.3497 H   0  0  0  0  0  0  0  0  0  0  0  0
    4.6084    2.3515   11.2173 H   0  0  0  0  0  0  0  0  0  0  0  0
    3.8361    3.8129    9.3818 H   0  0  0  0  0  0  0  0  0  0  0  0
   -0.2487    3.6561    8.1758 H   0  0  0  0  0  0  0  0  0  0  0  0
   -0.2439    5.4020    7.9931 H   0  0  0  0  0  0  0  0  0  0  0  0
   -1.8882    4.6243    9.7487 H   0  0  0  0  0  0  0  0  0  0  0  0
   -0.7133    5.7290   10.3994 H   0  0  0  0  0  0  0  0  0  0  0  0
   -1.1280    3.4995   11.6583 H   0  0  0  0  0  0  0  0  0  0  0  0
    0.6104    2.2087   12.7810 H   0  0  0  0  0  0  0  0  0  0  0  0
   -0.1096   -0.0303   13.6230 H   0  0  0  0  0  0  0  0  0  0  0  0
   -3.0323    0.9527   11.6561 H   0  0  0  0  0  0  0  0  0  0  0  0
   -1.5950   -0.0476   11.5044 H   0  0  0  0  0  0  0  0  0  0  0  0
   -1.6381    1.3072   12.6663 H   0  0  0  0  0  0  0  0  0  0  0  0
  1  2  1  0
  1 31  1  0
  1 32  1  0
  1 33  1  0
  2  3  1  0
  3  4  2  0
  3 28  1  0
  4  5  1  0
  4 34  1  0
  5  6  2  0
  5 35  1  0
  6  7  1  0
  6 27  1  0
  7  8  1  0
  7 36  1  0
  8  9  2  0
  8 16  1  0
  9 10  1  0
 10 11  2  0
 10 17  1  0
 11 12  1  0
 11 37  1  0
 12 13  1  0
 12 16  1  0
 13 14  2  0
 13 38  1  0
 14 15  1  0
 14 39  1  0
 15 16  2  0
 17 18  2  0
 17 26  1  0
 18 19  1  0
 18 40  1  0
 19 20  2  0
 19 41  1  0
 20 21  1  0
 20 25  1  0
 21 22  1  0
 22 23  1  0
 22 42  1  0
 22 43  1  0
 23 24  1  0
 23 44  1  0
 23 45  1  0
 24 25  1  0
 24 46  1  0
 25 26  2  0
 26 47  1  0
 27 28  2  0
 27 48  1  0
 28 29  1  0
 29 30  1  0
 30 49  1  0
 30 50  1  0
 30 51  1  0
M  END
>  <IC50[nM]>  (20) 
4.7000000000000002

>  <atom.dprop.PartialCharge>  (20) 
0.11156109 -0.325456 0.0833617 -0.1457094 -0.11718188 0.12698108 -0.6978888 0.61274534 -0.6213802 0.16492827 -0.1197235 -0.06631855 -0.28955728 0.32681555 -0.62559974 0.26660147 -0.062960275 -0.09814787 -0.12247655 0.07341951 -0.3122192 0.10979299 0.14906667 -0.71473145 0.07078442 -0.121305525 -0.12473698 0.08180809 -0.33198172 0.1167303 0.04418661 0.04418661 0.04418661 0.14309506 0.14345407 0.44049788 0.17585915 0.18055515 0.05033531 0.13791054 0.14861643 0.066196635 0.066196635 0.054986462 0.054986462 0.3948143 0.13991863 0.14861557 0.041393332 0.041393332 0.041393332

>  <experimental dG reference units>  (20) 
nM

>  <experimental dG reference field>  (20) 
IC50[nM]

>  <kJ/mol experimental dG>  (20) 
-47.830980095871524

>  <kcal/mol experimental dG>  (20) 
-11.431878607999886

>  <AmberAM1BCCCache>  (20) 
gASVJAQAAAAAAABdlCiMFm51bXB5Ll9jb3JlLm11bHRpYXJyYXmUjAZzY2FsYXKUk5SMBW51bXB5lIwFZHR5cGWUk5SMAmY4lImIh5RSlChLA4wBPJROTk5K/////0r/////SwB0lGJDCG9A9VVEcfU/lIaUUpRoA2gJQwjMEwoC2hsPwJSGlFKUaANoCUMIwfkAn5fP6T+UhpRSlGgDaAlDCNffesE5Xf6/lIaUUpRoA2gJQwjie38J/SP4v5SGlFKUaANoCUMIin2nWekW9z+UhpRSlGgDaAlDCPoybeWMqSDAlIaUUpRoA2gJQwjvSitN05ogQJSGlFKUaANoCUMI9csZbYsyIcCUhpRSlGgDaAlDCLSUv+A/BhZAlIaUUpRoA2gJQwgUnpZoZ4IFwJSGlFKUaANoCUMIhgU5R18s4T+UhpRSlGgDaAlDCAa82pKhUATAlIaUUpRoA2gJQwhi1cVrcoulv5SGlFKUaANoCUMIKX7bGUvIBsCUhpRSlGgDaAlDCHkVXApWvwDAlIaUUpRoA2gJQwjOMWuuXxj7v5SGlFKUaANoCUMIWjCuFU7x8L+UhpRSlGgDaAlDCHRjVUVvHfm/lIaUUpRoA2gJQwhwYoCujNjvP5SGlFKUaANoCUMIpioIqX8yDsCUhpRSlGgDaAlDCLKMyiVicfQ/lIaUUpRoA2gJQwgFbMJhlNT5P5SGlFKUaANoCUMI7pADthd9IMCUhpRSlGgDaAlDCDmU2clypuM/lIaUUpRoA2gJQwikizctDoP3v5SGlFKUaANoCUMIbXJ3WoyE+L+UhpRSlGgDaAlDCMTKE+9WAvQ/lIaUUpRoA2gJQwgSD4aqIUwPwJSGlFKUaANoCUMI4RVRQskj9z+UhpRSlGgDaAlDCMbEzlDAu+A/lIaUUpRoA2gJQwjGxM5QwLvgP5SGlFKUaANoCUMIxsTOUMC74D+UhpRSlGgDaAlDCHSSd3XvVvo/lIaUUpRoA2gJQwgXkLVJE2/6P5SGlFKUaANoCUMIwzgOfB2WFECUhpRSlGgDaAlDCDt5QvIzXABAlIaUUpRoA2gJQwinXcDz1XUBQJSGlFKUaANoCUMIaGDNJqxZAUCUhpRSlGgDaAlDCOxYsUxXovw/lIaUUpRoA2gJQwghWBs+Y6r8P5SGlFKUaANoCUMII1hQvqIW6D+UhpRSlGgDaAlDCCNYUL6iFug/lIaUUpRoA2gJQwiHjr6sauvlP5SGlFKUaANoCUMIh46+rGrr5T+UhpRSlGgDaAlDCHzyeaiySBJAlIaUUpRoA2gJQwiZlc+vvzb6P5SGlFKUaANoCUMICDd/2Vj8/T+UhpRSlGgDaAlDCNwo3nkHJ+E/lIaUUpRoA2gJQwjcKN55ByfhP5SGlFKUaANoCUMI3CjeeQcn4T+UhpRSlGUu

$$$$
CHEMBL3265016
     RDKit          3D

 48 52  0  0  0  0  0  0  0  0999 V2000
   -4.2568   -3.1050   13.5687 C   0  0  0  0  0  0  0  0  0  0  0  0
   -3.8730   -2.3616   14.7152 O   0  0  0  0  0  0  0  0  0  0  0  0
   -2.5250   -2.1116   14.8158 C   0  0  0  0  0  0  0  0  0  0  0  0
   -1.7470   -2.8700   15.6807 C   0  0  0  0  0  0  0  0  0  0  0  0
   -0.3902   -2.6106   15.8144 C   0  0  0  0  0  0  0  0  0  0  0  0
    0.2207   -1.5844   15.0868 C   0  0  0  0  0  0  0  0  0  0  0  0
    1.6046   -1.3596   15.3257 N   0  0  0  0  0  0  0  0  0  0  0  0
    2.5329   -0.4401   14.7638 C   0  0  0  0  0  0  0  0  0  0  0  0
    2.1751    0.3788   13.7311 N   0  0  0  0  0  0  0  0  0  0  0  0
    3.1086    1.2387   13.2176 C   0  0  0  0  0  0  0  0  0  0  0  0
    4.4159    1.2831   13.6998 C   0  0  0  0  0  0  0  0  0  0  0  0
    4.7435    0.4926   14.7566 N   0  0  0  0  0  0  0  0  0  0  0  0
    5.8975    0.3810   15.4862 C   0  0  0  0  0  0  0  0  0  0  0  0
    5.5917   -0.5286   16.5249 C   0  0  0  0  0  0  0  0  0  0  0  0
    4.3780   -1.0408   16.3703 N   0  0  0  0  0  0  0  0  0  0  0  0
    3.8370   -0.3906   15.3278 C   0  0  0  0  0  0  0  0  0  0  0  0
    2.6350    2.1602   12.1213 C   0  0  0  0  0  0  0  0  0  0  0  0
    3.5425    2.6402   11.1650 C   0  0  0  0  0  0  0  0  0  0  0  0
    3.1493    3.4616   10.1117 C   0  0  0  0  0  0  0  0  0  0  0  0
    1.8041    3.8212   10.0117 C   0  0  0  0  0  0  0  0  0  0  0  0
    1.0219    4.6165    9.0806 C   0  0  0  0  0  0  0  0  0  0  0  0
   -0.2682    4.5927    9.5377 C   0  0  0  0  0  0  0  0  0  0  0  0
   -0.3496    3.8668   10.6667 N   0  0  0  0  0  0  0  0  0  0  0  0
    0.8806    3.3533   11.0064 C   0  0  0  0  0  0  0  0  0  0  0  0
    1.2701    2.5323   12.0703 C   0  0  0  0  0  0  0  0  0  0  0  0
   -0.5547   -0.8186   14.1912 C   0  0  0  0  0  0  0  0  0  0  0  0
   -1.9427   -1.0874   14.0603 C   0  0  0  0  0  0  0  0  0  0  0  0
   -2.7500   -0.3519   13.2066 O   0  0  0  0  0  0  0  0  0  0  0  0
   -2.2281    0.6471   12.3512 C   0  0  0  0  0  0  0  0  0  0  0  0
   -5.3362   -3.2528   13.5863 H   0  0  0  0  0  0  0  0  0  0  0  0
   -3.7878   -4.0896   13.5583 H   0  0  0  0  0  0  0  0  0  0  0  0
   -4.0115   -2.5819   12.6430 H   0  0  0  0  0  0  0  0  0  0  0  0
   -2.1984   -3.6612   16.2623 H   0  0  0  0  0  0  0  0  0  0  0  0
    0.1986   -3.2043   16.5000 H   0  0  0  0  0  0  0  0  0  0  0  0
    1.9930   -1.9388   16.0550 H   0  0  0  0  0  0  0  0  0  0  0  0
    5.1768    1.9603   13.3373 H   0  0  0  0  0  0  0  0  0  0  0  0
    6.7836    0.9581   15.2759 H   0  0  0  0  0  0  0  0  0  0  0  0
    6.2317   -0.8060   17.3476 H   0  0  0  0  0  0  0  0  0  0  0  0
    4.5826    2.3470   11.2271 H   0  0  0  0  0  0  0  0  0  0  0  0
    3.8655    3.8013    9.3845 H   0  0  0  0  0  0  0  0  0  0  0  0
    1.3655    5.1278    8.2063 H   0  0  0  0  0  0  0  0  0  0  0  0
   -1.1634    5.0533    9.1382 H   0  0  0  0  0  0  0  0  0  0  0  0
   -1.2206    3.7428   11.1558 H   0  0  0  0  0  0  0  0  0  0  0  0
    0.5744    2.1993   12.8125 H   0  0  0  0  0  0  0  0  0  0  0  0
   -0.1099   -0.0288   13.6231 H   0  0  0  0  0  0  0  0  0  0  0  0
   -3.0484    1.0726   11.7702 H   0  0  0  0  0  0  0  0  0  0  0  0
   -1.5061    0.2341   11.6487 H   0  0  0  0  0  0  0  0  0  0  0  0
   -1.7788    1.4529   12.9278 H   0  0  0  0  0  0  0  0  0  0  0  0
  1  2  1  0
  1 30  1  0
  1 31  1  0
  1 32  1  0
  2  3  1  0
  3  4  2  0
  3 27  1  0
  4  5  1  0
  4 33  1  0
  5  6  2  0
  5 34  1  0
  6  7  1  0
  6 26  1  0
  7  8  1  0
  7 35  1  0
  8  9  2  0
  8 16  1  0
  9 10  1  0
 10 11  2  0
 10 17  1  0
 11 12  1  0
 11 36  1  0
 12 13  1  0
 12 16  1  0
 13 14  2  0
 13 37  1  0
 14 15  1  0
 14 38  1  0
 15 16  2  0
 17 18  2  0
 17 25  1  0
 18 19  1  0
 18 39  1  0
 19 20  2  0
 19 40  1  0
 20 21  1  0
 20 24  1  0
 21 22  2  0
 21 41  1  0
 22 23  1  0
 22 42  1  0
 23 24  1  0
 23 43  1  0
 24 25  2  0
 25 44  1  0
 26 27  2  0
 26 45  1  0
 27 28  1  0
 28 29  1  0
 29 46  1  0
 29 47  1  0
 29 48  1  0
M  END
>  <IC50[nM]>  (21) 
2.7000000000000002

>  <atom.dprop.PartialCharge>  (21) 
0.11166021 -0.32535684 0.08346082 -0.14561026 -0.11708276 0.1270802 -0.69790554 0.61373574 -0.6216921 0.15560418 -0.11791493 -0.06567584 -0.2893552 0.32691467 -0.6255006 0.26655248 -0.049383745 -0.12831151 -0.08100311 -0.0881421 -0.18607989 0.0074002407 -0.58154553 0.079771124 -0.12091121 -0.12463786 0.08190721 -0.33188257 0.116829425 0.044285733 0.044285733 0.044285733 0.14319418 0.1435532 0.440597 0.17611538 0.18065427 0.050434433 0.1343752 0.13650693 0.16001835 0.16406858 0.45417306 0.1373353 0.14871469 0.041492462 0.041492462 0.041492462

>  <experimental dG reference units>  (21) 
nM

>  <experimental dG reference field>  (21) 
IC50[nM]

>  <kJ/mol experimental dG>  (21) 
-49.21362694395015

>  <kcal/mol experimental dG>  (21) 
-11.762339135743344

>  <AmberAM1BCCCache>  (21) 
gASV6wMAAAAAAABdlCiMFm51bXB5Ll9jb3JlLm11bHRpYXJyYXmUjAZzY2FsYXKUk5SMBW51bXB5lIwFZHR5cGWUk5SMAmY4lImIh5RSlChLA4wBPJROTk5K/////0r/////SwB0lGJDCOevI0q4o/U/lIaUUpRoA2gJQwg80CgtU3sPwJSGlFKUaANoCUMI9jD+6EWv5j+UhpRSlGgDaAlDCAOI4IJfOf2/lIaUUpRoA2gJQwhQ67SwfkP5v5SGlFKUaANoCUMI2c8nMhdz+D+UhpRSlGgDaAlDCFelX+w5oCDAlIaUUpRoA2gJQwhU20V5/IcgQJSGlFKUaANoCUMIgT/tiSYdIcCUhpRSlGgDaAlDCOA2e1J90hVAlIaUUpRoA2gJQwjjaSKw90QFwJSGlFKUaANoCUMIQv+BH7F/4D+UhpRSlGgDaAlDCFmA1U+jXwTAlIaUUpRoA2gJQwg5aDfIakSkv5SGlFKUaANoCUMIykiGS+2WBsCUhpRSlGgDaAlDCGDbguQ/vgDAlIaUUpRoA2gJQwiwISOfRhj3v5SGlFKUaANoCUMIgi3teZOf9r+UhpRSlGgDaAlDCBjA6RLmxvC/lIaUUpRoA2gJQwj3Sv2zr5fvv5SGlFKUaANoCUMIwIzr6EXWAcCUhpRSlGgDaAlDCMAbdZhdP/O/lIaUUpRoA2gJQwhTFd2tFIQCwJSGlFKUaANoCUMInUL7TmWs47+UhpRSlGgDaAlDCFDrtLB+Q/m/lIaUUpRoA2gJQwg1yhhMdJX6v5SGlFKUaANoCUMIJBmmfsCG9T+UhpRSlGgDaAlDCLPZMNzDGg/AlIaUUpRoA2gJQwhZhX82PVb3P5SGlFKUaANoCUMI40fIp9if4D+UhpRSlGgDaAlDCONHyKfYn+A/lIaUUpRoA2gJQwjjR8in2J/gP5SGlFKUaANoCUMIzgmC++s4+j+UhpRSlGgDaAlDCFcAekx7mfo/lIaUUpRoA2gJQwj6Vxe3h4AUQJSGlFKUaANoCUMIJrI6AlxpAECUhpRSlGgDaAlDCCWY5CDmcgFAlIaUUpRoA2gJQwiCmqZMwloBQJSGlFKUaANoCUMIs+jlluGK+z+UhpRSlGgDaAlDCIgOBlOkCPo/lIaUUpRoA2gJQwg7qzElhf79P5SGlFKUaANoCUMI3I4ZGDMg/z+UhpRSlGgDaAlDCO4koLGcKwxAlIaUUpRoA2gJQwhyIRaxhUf5P5SGlFKUaANoCUMIO6sxJYX+/T+UhpRSlGgDaAlDCG0+wPhnAOE/lIaUUpRoA2gJQwhtPsD4ZwDhP5SGlFKUaANoCUMIbT7A+GcA4T+UhpRSlGUu

$$$$
CHEMBL3265037
     RDKit          3D

 56 61  0  0  0  0  0  0  0  0999 V2000
   -2.1744    0.6943   12.3856 C   0  0  0  0  0  0  0  0  0  0  0  0
   -2.7023   -0.3474   13.1823 O   0  0  0  0  0  0  0  0  0  0  0  0
   -1.9098   -1.0981   14.0384 C   0  0  0  0  0  0  0  0  0  0  0  0
   -0.5310   -0.8294   14.1803 C   0  0  0  0  0  0  0  0  0  0  0  0
    0.2355   -1.5834   15.0946 C   0  0  0  0  0  0  0  0  0  0  0  0
    1.6117   -1.3596   15.3361 N   0  0  0  0  0  0  0  0  0  0  0  0
    2.5319   -0.4372   14.7774 C   0  0  0  0  0  0  0  0  0  0  0  0
    2.1598    0.3941   13.7549 N   0  0  0  0  0  0  0  0  0  0  0  0
    3.0944    1.2396   13.2243 C   0  0  0  0  0  0  0  0  0  0  0  0
    4.4043    1.2833   13.6944 C   0  0  0  0  0  0  0  0  0  0  0  0
    4.7385    0.4947   14.7556 N   0  0  0  0  0  0  0  0  0  0  0  0
    5.8973    0.3913   15.4817 C   0  0  0  0  0  0  0  0  0  0  0  0
    5.5996   -0.5416   16.5121 C   0  0  0  0  0  0  0  0  0  0  0  0
    4.3864   -1.0493   16.3602 N   0  0  0  0  0  0  0  0  0  0  0  0
    3.8356   -0.3858   15.3271 C   0  0  0  0  0  0  0  0  0  0  0  0
    2.6225    2.1542   12.1213 C   0  0  0  0  0  0  0  0  0  0  0  0
    3.5396    2.6409   11.1644 C   0  0  0  0  0  0  0  0  0  0  0  0
    3.1535    3.4630   10.1051 C   0  0  0  0  0  0  0  0  0  0  0  0
    1.8086    3.8199   10.0132 C   0  0  0  0  0  0  0  0  0  0  0  0
    0.9978    4.6054    9.1182 C   0  0  0  0  0  0  0  0  0  0  0  0
   -0.2423    4.6093    9.5224 N   0  0  0  0  0  0  0  0  0  0  0  0
   -0.3299    3.8832   10.6368 N   0  0  0  0  0  0  0  0  0  0  0  0
    0.8842    3.3496   10.9964 C   0  0  0  0  0  0  0  0  0  0  0  0
    1.2618    2.5164   12.0586 C   0  0  0  0  0  0  0  0  0  0  0  0
   -0.3784   -2.5892   15.8339 C   0  0  0  0  0  0  0  0  0  0  0  0
   -1.7343   -2.8306   15.7168 C   0  0  0  0  0  0  0  0  0  0  0  0
   -2.5117   -2.0982   14.8261 C   0  0  0  0  0  0  0  0  0  0  0  0
   -3.8736   -2.3467   14.7445 N   0  0  0  0  0  0  0  0  0  0  0  0
   -4.6489   -2.3804   13.4950 C   0  0  0  0  0  0  0  0  0  0  0  0
   -5.4028   -3.7252   13.3613 C   0  0  0  0  0  0  0  0  0  0  0  0
   -6.2201   -3.9495   14.5061 O   0  0  0  0  0  0  0  0  0  0  0  0
   -5.4732   -4.0046   15.7182 C   0  0  0  0  0  0  0  0  0  0  0  0
   -4.7007   -2.7060   15.8980 C   0  0  0  0  0  0  0  0  0  0  0  0
   -2.9904    1.1363   11.8091 H   0  0  0  0  0  0  0  0  0  0  0  0
   -1.4428    0.2907   11.6870 H   0  0  0  0  0  0  0  0  0  0  0  0
   -1.7364    1.4787   13.0041 H   0  0  0  0  0  0  0  0  0  0  0  0
   -0.0893   -0.0406   13.6077 H   0  0  0  0  0  0  0  0  0  0  0  0
    2.0034   -1.9475   16.0618 H   0  0  0  0  0  0  0  0  0  0  0  0
    5.1625    1.9521   13.3194 H   0  0  0  0  0  0  0  0  0  0  0  0
    6.7773    0.9830   15.2753 H   0  0  0  0  0  0  0  0  0  0  0  0
    6.2437   -0.8354   17.3270 H   0  0  0  0  0  0  0  0  0  0  0  0
    4.5739    2.3509   11.2352 H   0  0  0  0  0  0  0  0  0  0  0  0
    3.8782    3.8039    9.3734 H   0  0  0  0  0  0  0  0  0  0  0  0
    1.3039    5.1373    8.2326 H   0  0  0  0  0  0  0  0  0  0  0  0
   -1.2154    3.7754   11.1065 H   0  0  0  0  0  0  0  0  0  0  0  0
    0.5533    2.1677   12.8004 H   0  0  0  0  0  0  0  0  0  0  0  0
    0.2091   -3.1801   16.5238 H   0  0  0  0  0  0  0  0  0  0  0  0
   -2.1890   -3.6122   16.3096 H   0  0  0  0  0  0  0  0  0  0  0  0
   -5.3854   -1.6032   13.4697 H   0  0  0  0  0  0  0  0  0  0  0  0
   -4.0001   -2.2760   12.6217 H   0  0  0  0  0  0  0  0  0  0  0  0
   -6.0319   -3.7256   12.4721 H   0  0  0  0  0  0  0  0  0  0  0  0
   -4.6910   -4.5475   13.2566 H   0  0  0  0  0  0  0  0  0  0  0  0
   -6.1314   -4.1557   16.5745 H   0  0  0  0  0  0  0  0  0  0  0  0
   -4.7486   -4.8187   15.6925 H   0  0  0  0  0  0  0  0  0  0  0  0
   -5.3882   -1.8709   16.0634 H   0  0  0  0  0  0  0  0  0  0  0  0
   -4.1072   -2.7162   16.8113 H   0  0  0  0  0  0  0  0  0  0  0  0
  1  2  1  0
  1 34  1  0
  1 35  1  0
  1 36  1  0
  2  3  1  0
  3  4  2  0
  3 27  1  0
  4  5  1  0
  4 37  1  0
  5  6  1  0
  5 25  2  0
  6  7  1  0
  6 38  1  0
  7  8  2  0
  7 15  1  0
  8  9  1  0
  9 10  2  0
  9 16  1  0
 10 11  1  0
 10 39  1  0
 11 12  1  0
 11 15  1  0
 12 13  2  0
 12 40  1  0
 13 14  1  0
 13 41  1  0
 14 15  2  0
 16 17  2  0
 16 24  1  0
 17 18  1  0
 17 42  1  0
 18 19  2  0
 18 43  1  0
 19 20  1  0
 19 23  1  0
 20 21  2  0
 20 44  1  0
 21 22  1  0
 22 23  1  0
 22 45  1  0
 23 24  2  0
 24 46  1  0
 25 26  1  0
 25 47  1  0
 26 27  2  0
 26 48  1  0
 27 28  1  0
 28 29  1  0
 28 33  1  0
 29 30  1  0
 29 49  1  0
 29 50  1  0
 30 31  1  0
 30 51  1  0
 30 52  1  0
 31 32  1  0
 32 33  1  0
 32 53  1  0
 32 54  1  0
 33 55  1  0
 33 56  1  0
M  END
>  <IC50[nM]>  (22) 
0.44

>  <atom.dprop.PartialCharge>  (22) 
0.11927654 -0.3282772 0.10972671 -0.16446997 0.1535061 -0.6992041 0.6165422 -0.62133574 0.15572864 -0.11753983 -0.06557852 -0.28925785 0.32701197 -0.6254032 0.2666498 -0.042407777 -0.1328234 -0.05985943 -0.20999476 0.3492064 -0.40436068 -0.39969552 0.080115296 -0.11820805 -0.14322646 -0.11923945 0.07894437 -0.6784072 0.17959115 0.11666873 -0.41412064 0.11666873 0.17959115 0.042578332 0.042578332 0.042578332 0.15266004 0.44340447 0.17621271 0.1807516 0.05053176 0.13669157 0.13834843 0.0559358 0.47534466 0.14305371 0.14731854 0.13861367 0.049500667 0.049500667 0.054894287 0.054894287 0.054894287 0.054894287 0.049500667 0.049500667

>  <experimental dG reference units>  (22) 
nM

>  <experimental dG reference field>  (22) 
IC50[nM]

>  <kJ/mol experimental dG>  (22) 
-53.738963446337614

>  <kcal/mol experimental dG>  (22) 
-12.843920517767115

>  <AmberAM1BCCCache>  (22) 
gASVgwQAAAAAAABdlCiMFm51bXB5Ll9jb3JlLm11bHRpYXJyYXmUjAZzY2FsYXKUk5SMBW51bXB5lIwFZHR5cGWUk5SMAmY4lImIh5RSlChLA4wBPJROTk5K/////0r/////SwB0lGJDCNhwzGRlrPU/lIaUUpRoA2gJQwgqBJA/GKwPwJSGlFKUaANoCUMIMS+XwGMq8j+UhpRSlGgDaAlDCA6Ti6XGQ/+/lIaUUpRoA2gJQwhYu3RgP8n2P5SGlFKUaANoCUMI0A37UxuZIMCUhpRSlGgDaAlDCETyuQYklSBAlIaUUpRoA2gJQwiV8XW2njYhwJSGlFKUaANoCUMIfz+Pb19eFUCUhpRSlGgDaAlDCB18WAYawwTAlIaUUpRoA2gJQwgdKMdl2Z/fP5SGlFKUaANoCUMId8LIaJH/A8CUhpRSlGgDaAlDCHvj2AacH5+/lIaUUpRoA2gJQwiPUbTynnUGwJSGlFKUaANoCUMIJOSwi/GcAMCUhpRSlGgDaAlDCJe6RgNIevO/lIaUUpRoA2gJQwhiXrhYvSf3v5SGlFKUaANoCUMI9x8heo8E6r+UhpRSlGgDaAlDCKIHWLUaSAPAlIaUUpRoA2gJQwjyHvYvaIoQQJSGlFKUaANoCUMI9AB5PKMMGMCUhpRSlGgDaAlDCO73CNlrxMm/lIaUUpRoA2gJQwirxlcg9HPnv5SGlFKUaANoCUMIjziYnPqp+L+UhpRSlGgDaAlDCJMBlVaa0Pi/lIaUUpRoA2gJQwh/Pkaj44L8v5SGlFKUaANoCUMILXblE7aA9z+UhpRSlGgDaAlDCEHAkAFqsR3AlIaUUpRoA2gJQwjgp2HdSrD9P5SGlFKUaANoCUMITGB+MmBV9j+UhpRSlGgDaAlDCKYaYKUr9hPAlIaUUpRoA2gJQwhMYH4yYFX2P5SGlFKUaANoCUMI4Kdh3Uqw/T+UhpRSlGgDaAlDCGzkBGGyUOA/lIaUUpRoA2gJQwhs5ARhslDgP5SGlFKUaANoCUMIbOQEYbJQ4D+UhpRSlGgDaAlDCHDSBfHF/fs/lIaUUpRoA2gJQwgjVyMl+WwUQJSGlFKUaANoCUMIw3TLQCaZAECUhpRSlGgDaAlDCMJadV+wogFAlIaUUpRoA2gJQwh8X/m2aHIBQJSGlFKUaANoCUMI/5H6+/SE/D+UhpRSlGgDaAlDCJGFm8kP+fo/lIaUUpRoA2gJQwjy0+uCqm7lP5SGlFKUaANoCUMIcMaUi1ytDUCUhpRSlGgDaAlDCAaPo3iAmPo/lIaUUpRoA2gJQwj6M61KoST6P5SGlFKUaANoCUMI8qGz1mHX+T+UhpRSlGgDaAlDCN6Vorm13eU/lIaUUpRoA2gJQwjelaK5td3lP5SGlFKUaANoCUMIX2VQn1G34z+UhpRSlGgDaAlDCF9lUJ9Rt+M/lIaUUpRoA2gJQwhfZVCfUbfjP5SGlFKUaANoCUMIX2VQn1G34z+UhpRSlGgDaAlDCN6Vorm13eU/lIaUUpRoA2gJQwjelaK5td3lP5SGlFKUZS4=

$$$$
CHEMBL3259820
     RDKit          3D

 48 51  0  0  0  0  0  0  0  0999 V2000
   -4.2559   -3.1060   13.5669 C   0  0  0  0  0  0  0  0  0  0  0  0
   -3.8726   -2.3561   14.7087 O   0  0  0  0  0  0  0  0  0  0  0  0
   -2.5261   -2.1090   14.8139 C   0  0  0  0  0  0  0  0  0  0  0  0
   -1.7497   -2.8677   15.6812 C   0  0  0  0  0  0  0  0  0  0  0  0
   -0.3968   -2.6084   15.8204 C   0  0  0  0  0  0  0  0  0  0  0  0
    0.2208   -1.5821   15.0957 C   0  0  0  0  0  0  0  0  0  0  0  0
    1.6029   -1.3570   15.3324 N   0  0  0  0  0  0  0  0  0  0  0  0
    2.5301   -0.4418   14.7814 C   0  0  0  0  0  0  0  0  0  0  0  0
    2.1713    0.3833   13.7481 N   0  0  0  0  0  0  0  0  0  0  0  0
    3.1089    1.2308   13.2274 C   0  0  0  0  0  0  0  0  0  0  0  0
    4.4101    1.2783   13.7032 C   0  0  0  0  0  0  0  0  0  0  0  0
    4.7426    0.4910   14.7676 N   0  0  0  0  0  0  0  0  0  0  0  0
    5.8953    0.3872   15.4836 C   0  0  0  0  0  0  0  0  0  0  0  0
    5.5954   -0.5343   16.5177 C   0  0  0  0  0  0  0  0  0  0  0  0
    4.3825   -1.0512   16.3664 N   0  0  0  0  0  0  0  0  0  0  0  0
    3.8364   -0.4021   15.3289 C   0  0  0  0  0  0  0  0  0  0  0  0
    2.6465    2.1385   12.1256 C   0  0  0  0  0  0  0  0  0  0  0  0
    3.5557    2.6368   11.1745 C   0  0  0  0  0  0  0  0  0  0  0  0
    3.1190    3.4676   10.1463 C   0  0  0  0  0  0  0  0  0  0  0  0
    1.7635    3.8248   10.0594 C   0  0  0  0  0  0  0  0  0  0  0  0
    0.8615    3.3448   11.0110 C   0  0  0  0  0  0  0  0  0  0  0  0
    1.2990    2.5127   12.0324 C   0  0  0  0  0  0  0  0  0  0  0  0
    1.2918    4.7293    8.9608 C   0  0  0  0  0  0  0  0  0  0  0  0
    2.0878    5.3456    8.2497 O   0  0  0  0  0  0  0  0  0  0  0  0
   -0.0320    4.8143    8.7824 N   0  0  0  0  0  0  0  0  0  0  0  0
   -0.5541   -0.8144   14.1977 C   0  0  0  0  0  0  0  0  0  0  0  0
   -1.9430   -1.0833   14.0624 C   0  0  0  0  0  0  0  0  0  0  0  0
   -2.7475   -0.3431   13.2088 O   0  0  0  0  0  0  0  0  0  0  0  0
   -2.2164    0.6551   12.3579 C   0  0  0  0  0  0  0  0  0  0  0  0
   -5.3366   -3.2485   13.5818 H   0  0  0  0  0  0  0  0  0  0  0  0
   -3.7903   -4.0925   13.5604 H   0  0  0  0  0  0  0  0  0  0  0  0
   -4.0039   -2.5877   12.6407 H   0  0  0  0  0  0  0  0  0  0  0  0
   -2.2037   -3.6575   16.2628 H   0  0  0  0  0  0  0  0  0  0  0  0
    0.1911   -3.2025   16.5100 H   0  0  0  0  0  0  0  0  0  0  0  0
    1.9934   -1.9421   16.0553 H   0  0  0  0  0  0  0  0  0  0  0  0
    5.1714    1.9452   13.3228 H   0  0  0  0  0  0  0  0  0  0  0  0
    6.7795    0.9683   15.2756 H   0  0  0  0  0  0  0  0  0  0  0  0
    6.2400   -0.8202   17.3279 H   0  0  0  0  0  0  0  0  0  0  0  0
    4.5974    2.3606   11.2253 H   0  0  0  0  0  0  0  0  0  0  0  0
    3.8290    3.8282    9.4160 H   0  0  0  0  0  0  0  0  0  0  0  0
   -0.1777    3.6239   10.9656 H   0  0  0  0  0  0  0  0  0  0  0  0
    0.5906    2.1614   12.7684 H   0  0  0  0  0  0  0  0  0  0  0  0
   -0.4213    5.3894    8.0510 H   0  0  0  0  0  0  0  0  0  0  0  0
   -0.6482    4.2950    9.3843 H   0  0  0  0  0  0  0  0  0  0  0  0
   -0.1068   -0.0259   13.6327 H   0  0  0  0  0  0  0  0  0  0  0  0
   -3.0358    1.0794   11.7746 H   0  0  0  0  0  0  0  0  0  0  0  0
   -1.4924    0.2406   11.6554 H   0  0  0  0  0  0  0  0  0  0  0  0
   -1.7680    1.4642   12.9342 H   0  0  0  0  0  0  0  0  0  0  0  0
  1  2  1  0
  1 30  1  0
  1 31  1  0
  1 32  1  0
  2  3  1  0
  3  4  2  0
  3 27  1  0
  4  5  1  0
  4 33  1  0
  5  6  2  0
  5 34  1  0
  6  7  1  0
  6 26  1  0
  7  8  1  0
  7 35  1  0
  8  9  2  0
  8 16  1  0
  9 10  1  0
 10 11  2  0
 10 17  1  0
 11 12  1  0
 11 36  1  0
 12 13  1  0
 12 16  1  0
 13 14  2  0
 13 37  1  0
 14 15  1  0
 14 38  1  0
 15 16  2  0
 17 18  2  0
 17 22  1  0
 18 19  1  0
 18 39  1  0
 19 20  2  0
 19 40  1  0
 20 21  1  0
 20 23  1  0
 21 22  2  0
 21 41  1  0
 22 42  1  0
 23 24  2  0
 23 25  1  0
 25 43  1  0
 25 44  1  0
 26 27  2  0
 26 45  1  0
 27 28  1  0
 28 29  1  0
 29 46  1  0
 29 47  1  0
 29 48  1  0
M  END
>  <IC50[nM]>  (23) 
17.699999999999999

>  <atom.dprop.PartialCharge>  (23) 
0.11254328 -0.32447368 0.084343866 -0.14472713 -0.11619967 0.12796322 -0.69690615 0.6123066 -0.6171575 0.15893024 -0.115535915 -0.06619242 -0.28857496 0.32779762 -0.6246172 0.26758367 -0.044261657 -0.110542804 -0.0905287 -0.13377942 -0.0905287 -0.110542804 0.66856915 -0.60702676 -0.6742556 -0.123754725 0.082790256 -0.33099937 0.11771248 0.045168824 0.045168824 0.045168824 0.1440773 0.14443633 0.4414801 0.17665662 0.1815374 0.051317528 0.13901663 0.14810126 0.14810126 0.13901663 0.31204653 0.31204653 0.14959782 0.04237555 0.04237555 0.04237555

>  <experimental dG reference units>  (23) 
nM

>  <experimental dG reference field>  (23) 
IC50[nM]

>  <kJ/mol experimental dG>  (23) 
-44.52346222063116

>  <kcal/mol experimental dG>  (23) 
-10.64136286343957

>  <AmberAM1BCCCache>  (23) 
gASV6wMAAAAAAABdlCiMFm51bXB5Ll9jb3JlLm11bHRpYXJyYXmUjAZzY2FsYXKUk5SMBW51bXB5lIwFZHR5cGWUk5SMAmY4lImIh5RSlChLA4wBPJROTk5K/////0r/////SwB0lGJDCNrn1amU3/Q/lIaUUpRoA2gJQwgDB9b4fpAMwJSGlFKUaANoCUMIGoUEoYiv8j+UhpRSlGgDaAlDCGw4mm3p7v6/lIaUUpRoA2gJQwgCy5YGPBb5v5SGlFKUaANoCUMIQRHiQGRO9z+UhpRSlGgDaAlDCLZgK4yaoCDAlIaUUpRoA2gJQwgAnceiyKUgQJSGlFKUaANoCUMIvHYl3cVHIcCUhpRSlGgDaAlDCMbKzNcaZRVAlIaUUpRoA2gJQwgxYxsKx80EwJSGlFKUaANoCUMIerisARFx3z+UhpRSlGgDaAlDCEp3DH6WAATAlIaUUpRoA2gJQwjxvOYIKzidv5SGlFKUaANoCUMIADs5IihoBsCUhpRSlGgDaAlDCDnLc4+epwDAlIaUUpRoA2gJQwg3JyWxxmj1v5SGlFKUaANoCUMIHyDfLTKx9b+UhpRSlGgDaAlDCFR8bdi8A/K/lIaUUpRoA2gJQwjFYRTSMzP5v5SGlFKUaANoCUMIVHxt2LwD8r+UhpRSlGgDaAlDCB8g3y0ysfW/lIaUUpRoA2gJQwgm5SNkA5MfQJSGlFKUaANoCUMI4mm6kt2THMCUhpRSlGgDaAlDCDkzJsVqxx/AlIaUUpRoA2gJQwh5/fJ9RrEAwJSGlFKUaANoCUMILD5IgLuD9T+UhpRSlGgDaAlDCEkCUqHGwAzAlIaUUpRoA2gJQwiV7FkBTa/0P5SGlFKUaANoCUMIU0nGIqd54D+UhpRSlGgDaAlDCFNJxiKneeA/lIaUUpRoA2gJQwhTScYip3ngP5SGlFKUaANoCUMIYCUcTnaW+j+UhpRSlGgDaAlDCNYuJP3mNfo/lIaUUpRoA2gJQwhr4mCNtHMUQJSGlFKUaANoCUMIq8QLg9lnAECUhpRSlGgDaAlDCO+lMUqroQFAlIaUUpRoA2gJQwhMqPN1h4kBQJSGlFKUaANoCUMIXgvGbACg+z+UhpRSlGgDaAlDCEYEgOlr6Ps/lIaUUpRoA2gJQwhGBIDpa+j7P5SGlFKUaANoCUMIXgvGbACg+z+UhpRSlGgDaAlDCAp8tMBNgw1AlIaUUpRoA2gJQwgKfLTATYMNQJSGlFKUaANoCUMIjP/7kbMY/D+UhpRSlGgDaAlDCN4/vnM22uA/lIaUUpRoA2gJQwjeP75zNtrgP5SGlFKUaANoCUMI3j++czba4D+UhpRSlGUu

$$$$
CHEMBL3265008
     RDKit          3D

 48 51  0  0  0  0  0  0  0  0999 V2000
   -4.2555   -3.1029   13.5707 C   0  0  0  0  0  0  0  0  0  0  0  0
   -3.8740   -2.3535   14.7166 O   0  0  0  0  0  0  0  0  0  0  0  0
   -2.5261   -2.1057   14.8053 C   0  0  0  0  0  0  0  0  0  0  0  0
   -1.7497   -2.8673   15.6804 C   0  0  0  0  0  0  0  0  0  0  0  0
   -0.3863   -2.6106   15.8150 C   0  0  0  0  0  0  0  0  0  0  0  0
    0.2220   -1.5829   15.0890 C   0  0  0  0  0  0  0  0  0  0  0  0
    1.5930   -1.3491   15.3060 N   0  0  0  0  0  0  0  0  0  0  0  0
    2.5452   -0.4689   14.7536 C   0  0  0  0  0  0  0  0  0  0  0  0
    2.2178    0.3551   13.7190 N   0  0  0  0  0  0  0  0  0  0  0  0
    3.1227    1.2406   13.2181 C   0  0  0  0  0  0  0  0  0  0  0  0
    4.4207    1.3039   13.7175 C   0  0  0  0  0  0  0  0  0  0  0  0
    4.7482    0.4921   14.7654 N   0  0  0  0  0  0  0  0  0  0  0  0
    5.8898    0.3836   15.5035 C   0  0  0  0  0  0  0  0  0  0  0  0
    5.5715   -0.5089   16.5177 C   0  0  0  0  0  0  0  0  0  0  0  0
    4.3818   -1.0543   16.3920 N   0  0  0  0  0  0  0  0  0  0  0  0
    3.8330   -0.4170   15.3252 C   0  0  0  0  0  0  0  0  0  0  0  0
    2.6564    2.1560   12.1340 C   0  0  0  0  0  0  0  0  0  0  0  0
    3.5566    2.6280   11.1666 C   0  0  0  0  0  0  0  0  0  0  0  0
    3.1294    3.4499   10.1277 C   0  0  0  0  0  0  0  0  0  0  0  0
    1.7879    3.8078   10.0318 C   0  0  0  0  0  0  0  0  0  0  0  0
    1.3747    4.5939    9.0109 F   0  0  0  0  0  0  0  0  0  0  0  0
    0.8660    3.3707   10.9895 C   0  0  0  0  0  0  0  0  0  0  0  0
    1.3140    2.5576   12.0419 C   0  0  0  0  0  0  0  0  0  0  0  0
   -0.5765    3.7694   10.8883 C   0  0  0  0  0  0  0  0  0  0  0  0
   -1.4448    3.1424   10.2886 O   0  0  0  0  0  0  0  0  0  0  0  0
   -0.8228    4.9083   11.5365 N   0  0  0  0  0  0  0  0  0  0  0  0
   -0.5664   -0.8256   14.2115 C   0  0  0  0  0  0  0  0  0  0  0  0
   -1.9389   -1.0760   14.0580 C   0  0  0  0  0  0  0  0  0  0  0  0
   -2.6996   -0.3055   13.2024 O   0  0  0  0  0  0  0  0  0  0  0  0
   -2.0030    0.6746   12.5250 C   0  0  0  0  0  0  0  0  0  0  0  0
   -5.3279   -3.2950   13.5978 H   0  0  0  0  0  0  0  0  0  0  0  0
   -3.7404   -4.0640   13.5409 H   0  0  0  0  0  0  0  0  0  0  0  0
   -4.0334   -2.5595   12.6514 H   0  0  0  0  0  0  0  0  0  0  0  0
   -2.2101   -3.6528   16.2607 H   0  0  0  0  0  0  0  0  0  0  0  0
    0.1909   -3.2102   16.5030 H   0  0  0  0  0  0  0  0  0  0  0  0
    2.0243   -1.8859   16.0479 H   0  0  0  0  0  0  0  0  0  0  0  0
    5.1721    2.0017   13.3734 H   0  0  0  0  0  0  0  0  0  0  0  0
    6.7662    0.9734   15.2903 H   0  0  0  0  0  0  0  0  0  0  0  0
    6.2091   -0.8330   17.3299 H   0  0  0  0  0  0  0  0  0  0  0  0
    4.5936    2.3316   11.1997 H   0  0  0  0  0  0  0  0  0  0  0  0
    3.8293    3.7971    9.3821 H   0  0  0  0  0  0  0  0  0  0  0  0
    0.6045    2.2130   12.7803 H   0  0  0  0  0  0  0  0  0  0  0  0
   -1.7221    5.3634   11.6017 H   0  0  0  0  0  0  0  0  0  0  0  0
   -0.1401    5.4552   12.0414 H   0  0  0  0  0  0  0  0  0  0  0  0
   -0.1548   -0.0169   13.6338 H   0  0  0  0  0  0  0  0  0  0  0  0
   -2.6866    1.2254   11.8789 H   0  0  0  0  0  0  0  0  0  0  0  0
   -1.2230    0.2132   11.9195 H   0  0  0  0  0  0  0  0  0  0  0  0
   -1.5495    1.3592   13.2418 H   0  0  0  0  0  0  0  0  0  0  0  0
  1  2  1  0
  1 31  1  0
  1 32  1  0
  1 33  1  0
  2  3  1  0
  3  4  2  0
  3 28  1  0
  4  5  1  0
  4 34  1  0
  5  6  2  0
  5 35  1  0
  6  7  1  0
  6 27  1  0
  7  8  1  0
  7 36  1  0
  8  9  2  0
  8 16  1  0
  9 10  1  0
 10 11  2  0
 10 17  1  0
 11 12  1  0
 11 37  1  0
 12 13  1  0
 12 16  1  0
 13 14  2  0
 13 38  1  0
 14 15  1  0
 14 39  1  0
 15 16  2  0
 17 18  2  0
 17 23  1  0
 18 19  1  0
 18 40  1  0
 19 20  2  0
 19 41  1  0
 20 21  1  0
 20 22  1  0
 22 23  2  0
 22 24  1  0
 23 42  1  0
 24 25  2  0
 24 26  1  0
 26 43  1  0
 26 44  1  0
 27 28  2  0
 27 45  1  0
 28 29  1  0
 29 30  1  0
 30 46  1  0
 30 47  1  0
 30 48  1  0
M  END
>  <IC50[nM]>  (24) 
67.299999999999997

>  <atom.dprop.PartialCharge>  (24) 
0.1127517 -0.3242652 0.08455229 -0.1445187 -0.11599124 0.12817162 -0.69669765 0.6151248 -0.61665255 0.1728379 -0.118137255 -0.06336817 -0.28836653 0.32800603 -0.6244087 0.26779208 -0.09438659 -0.06698625 -0.17546204 0.17549072 -0.12897742 -0.18668817 -0.041738857 0.6836698 -0.5914522 -0.67500126 -0.12354629 0.08299868 -0.33079094 0.1179209 0.04537725 0.04537725 0.04537725 0.14428574 0.14464477 0.44168854 0.17765865 0.18174584 0.051525958 0.14428316 0.1569457 0.15340999 0.3141207 0.3141207 0.14980626 0.042583972 0.042583972 0.042583972

>  <experimental dG reference units>  (24) 
nM

>  <experimental dG reference field>  (24) 
IC50[nM]

>  <kJ/mol experimental dG>  (24) 
-41.19201485068861

>  <kcal/mol experimental dG>  (24) 
-9.845127832382554

>  <AmberAM1BCCCache>  (24) 
gASV6wMAAAAAAABdlCiMFm51bXB5Ll9jb3JlLm11bHRpYXJyYXmUjAZzY2FsYXKUk5SMBW51bXB5lIwFZHR5cGWUk5SMAmY4lImIh5RSlChLA4wBPJROTk5K/////0r/////SwB0lGJDCB8aGOaV4PQ/lIaUUpRoA2gJQwjh7bRa/o8MwJSGlFKUaANoCUMI1MBOjPpP8j+UhpRSlGgDaAlDCJ0PYOBYjf6/lIaUUpRoA2gJQwiOisjDEab5v5SGlFKUaANoCUMIVTWYdjzg9z+UhpRSlGgDaAlDCG0ao2R6oCDAlIaUUpRoA2gJQwhK40/K6KUgQJSGlFKUaANoCUMIFi7biclfIcCUhpRSlGgDaAlDCBFcYX4TNRVAlIaUUpRoA2gJQwi0YY4h4NsDwJSGlFKUaANoCUMIYafVrtjy3T+UhpRSlGgDaAlDCPpptbpihwPAlIaUUpRoA2gJQwi/K1r42/ecv5SGlFKUaANoCUMIOyTar4NPBsCUhpRSlGgDaAlDCBayUvEdpwDAlIaUUpRoA2gJQwiIPMYfsML8v5SGlFKUaANoCUMI30tMA2974r+UhpRSlGgDaAlDCJ3fTYgN4QDAlIaUUpRoA2gJQwiXd2Jy1mb9P5SGlFKUaANoCUMIg954blxi+r+UhpRSlGgDaAlDCBayUvEdpwDAlIaUUpRoA2gJQwhqQkRU/tviv5SGlFKUaANoCUMIz2vPRZ3PH0CUhpRSlGgDaAlDCH7R32hQDB3AlIaUUpRoA2gJQwgEtoKSQSofwJSGlFKUaANoCUMI4trJMFURAcCUhpRSlGgDaAlDCLZrBmUEtfU/lIaUUpRoA2gJQwgn6TADRsAMwJSGlFKUaANoCUMI2R6cPU6w9D+UhpRSlGgDaAlDCN2tSpupe+A/lIaUUpRoA2gJQwjdrUqbqXvgP5SGlFKUaANoCUMI3a1Km6l74D+UhpRSlGgDaAlDCOpS2jK/x/o/lIaUUpRoA2gJQwgbYWY56Db6P5SGlFKUaANoCUMIKnBS8uJnFECUhpRSlGgDaAlDCEDN3u5UEQFAlIaUUpRoA2gJQwj5twxll+oBQJSGlFKUaANoCUMIbsEUFAiKAUCUhpRSlGgDaAlDCM79kQvJLP4/lIaUUpRoA2gJQwi3EKJpqmv9P5SGlFKUaANoCUMIKeb9VS8e/z+UhpRSlGgDaAlDCFmJC4SB/A1AlIaUUpRoA2gJQwhZiQuEgfwNQJSGlFKUaANoCUMI0TE+zrQZ/D+UhpRSlGgDaAlDCMdb/GMRvOA/lIaUUpRoA2gJQwjHW/xjEbzgP5SGlFKUaANoCUMIx1v8YxG84D+UhpRSlGUu

$$$$
CHEMBL3265024
     RDKit          3D

 50 54  0  0  0  0  0  0  0  0999 V2000
   -4.2568   -3.1054   13.5684 C   0  0  0  0  0  0  0  0  0  0  0  0
   -3.8727   -2.3625   14.7149 O   0  0  0  0  0  0  0  0  0  0  0  0
   -2.5248   -2.1122   14.8155 C   0  0  0  0  0  0  0  0  0  0  0  0
   -1.7475   -2.8704   15.6805 C   0  0  0  0  0  0  0  0  0  0  0  0
   -0.3908   -2.6105   15.8142 C   0  0  0  0  0  0  0  0  0  0  0  0
    0.2212   -1.5850   15.0876 C   0  0  0  0  0  0  0  0  0  0  0  0
    1.6034   -1.3608   15.3283 N   0  0  0  0  0  0  0  0  0  0  0  0
    2.5312   -0.4403   14.7667 C   0  0  0  0  0  0  0  0  0  0  0  0
    2.1675    0.3842   13.7368 N   0  0  0  0  0  0  0  0  0  0  0  0
    3.1076    1.2383   13.2220 C   0  0  0  0  0  0  0  0  0  0  0  0
    4.4125    1.2788   13.7032 C   0  0  0  0  0  0  0  0  0  0  0  0
    4.7426    0.4894   14.7579 N   0  0  0  0  0  0  0  0  0  0  0  0
    5.8974    0.3808   15.4860 C   0  0  0  0  0  0  0  0  0  0  0  0
    5.5940   -0.5330   16.5234 C   0  0  0  0  0  0  0  0  0  0  0  0
    4.3802   -1.0455   16.3684 N   0  0  0  0  0  0  0  0  0  0  0  0
    3.8358   -0.3914   15.3289 C   0  0  0  0  0  0  0  0  0  0  0  0
    2.6478    2.1536   12.1231 C   0  0  0  0  0  0  0  0  0  0  0  0
    3.5652    2.6370   11.1626 C   0  0  0  0  0  0  0  0  0  0  0  0
    3.1327    3.4633   10.1244 C   0  0  0  0  0  0  0  0  0  0  0  0
    1.7965    3.8161   10.0403 C   0  0  0  0  0  0  0  0  0  0  0  0
    1.4003    4.6403    9.0163 O   0  0  0  0  0  0  0  0  0  0  0  0
    0.0245    4.4666    8.5995 C   0  0  0  0  0  0  0  0  0  0  0  0
   -1.0306    4.3224    9.7544 C   0  0  0  0  0  0  0  0  0  0  0  0
   -2.2095    4.6594    9.6693 O   0  0  0  0  0  0  0  0  0  0  0  0
   -0.4630    3.7540   10.8496 N   0  0  0  0  0  0  0  0  0  0  0  0
    0.8760    3.3777   10.9729 C   0  0  0  0  0  0  0  0  0  0  0  0
    1.2936    2.5512   12.0256 C   0  0  0  0  0  0  0  0  0  0  0  0
   -0.5545   -0.8186   14.1904 C   0  0  0  0  0  0  0  0  0  0  0  0
   -1.9414   -1.0869   14.0597 C   0  0  0  0  0  0  0  0  0  0  0  0
   -2.7479   -0.3495   13.2074 O   0  0  0  0  0  0  0  0  0  0  0  0
   -2.2257    0.6484   12.3503 C   0  0  0  0  0  0  0  0  0  0  0  0
   -5.3364   -3.2530   13.5862 H   0  0  0  0  0  0  0  0  0  0  0  0
   -3.7871   -4.0896   13.5579 H   0  0  0  0  0  0  0  0  0  0  0  0
   -4.0111   -2.5827   12.6426 H   0  0  0  0  0  0  0  0  0  0  0  0
   -2.2013   -3.6605   16.2619 H   0  0  0  0  0  0  0  0  0  0  0  0
    0.1985   -3.2029   16.5011 H   0  0  0  0  0  0  0  0  0  0  0  0
    1.9936   -1.9428   16.0565 H   0  0  0  0  0  0  0  0  0  0  0  0
    5.1741    1.9556   13.3388 H   0  0  0  0  0  0  0  0  0  0  0  0
    6.7812    0.9637   15.2765 H   0  0  0  0  0  0  0  0  0  0  0  0
    6.2349   -0.8119   17.3458 H   0  0  0  0  0  0  0  0  0  0  0  0
    4.6048    2.3508   11.2165 H   0  0  0  0  0  0  0  0  0  0  0  0
    3.8336    3.8213    9.3866 H   0  0  0  0  0  0  0  0  0  0  0  0
   -0.2884    5.2770    7.9386 H   0  0  0  0  0  0  0  0  0  0  0  0
   -0.0356    3.5427    8.0188 H   0  0  0  0  0  0  0  0  0  0  0  0
   -1.0932    3.5716   11.6149 H   0  0  0  0  0  0  0  0  0  0  0  0
    0.5806    2.2143   12.7659 H   0  0  0  0  0  0  0  0  0  0  0  0
   -0.1112   -0.0266   13.6222 H   0  0  0  0  0  0  0  0  0  0  0  0
   -3.0472    1.0725   11.7697 H   0  0  0  0  0  0  0  0  0  0  0  0
   -1.5042    0.2337   11.6479 H   0  0  0  0  0  0  0  0  0  0  0  0
   -1.7772    1.4543   12.9275 H   0  0  0  0  0  0  0  0  0  0  0  0
  1  2  1  0
  1 32  1  0
  1 33  1  0
  1 34  1  0
  2  3  1  0
  3  4  2  0
  3 29  1  0
  4  5  1  0
  4 35  1  0
  5  6  2  0
  5 36  1  0
  6  7  1  0
  6 28  1  0
  7  8  1  0
  7 37  1  0
  8  9  2  0
  8 16  1  0
  9 10  1  0
 10 11  2  0
 10 17  1  0
 11 12  1  0
 11 38  1  0
 12 13  1  0
 12 16  1  0
 13 14  2  0
 13 39  1  0
 14 15  1  0
 14 40  1  0
 15 16  2  0
 17 18  2  0
 17 27  1  0
 18 19  1  0
 18 41  1  0
 19 20  2  0
 19 42  1  0
 20 21  1  0
 20 26  1  0
 21 22  1  0
 22 23  1  0
 22 43  1  0
 22 44  1  0
 23 24  2  0
 23 25  1  0
 25 26  1  0
 25 45  1  0
 26 27  2  0
 27 46  1  0
 28 29  2  0
 28 47  1  0
 29 30  1  0
 30 31  1  0
 31 48  1  0
 31 49  1  0
 31 50  1  0
M  END
>  <IC50[nM]>  (25) 
2.2999999999999998

>  <atom.dprop.PartialCharge>  (25) 
0.11238289 -0.32463408 0.084183484 -0.14488754 -0.11636005 0.12780283 -0.6970666 0.6135671 -0.6194101 0.1683299 -0.11651437 -0.06549671 -0.2887354 0.32763726 -0.6247777 0.26742327 -0.070526004 -0.09385231 -0.11207388 0.07284351 -0.30673426 0.06379713 0.68108237 -0.6059894 -0.47098494 0.017331742 -0.12837215 -0.12391512 0.082629874 -0.3311598 0.117552094 0.045008432 0.045008432 0.045008432 0.1439169 0.14427593 0.4413197 0.17668101 0.18137701 0.05115713 0.1389559 0.15232265 0.09063408 0.09063408 0.34238017 0.1401639 0.14943743 0.042215154 0.042215154 0.042215154

>  <experimental dG reference units>  (25) 
nM

>  <experimental dG reference field>  (25) 
IC50[nM]

>  <kJ/mol experimental dG>  (25) 
-49.613578172491245

>  <kcal/mol experimental dG>  (25) 
-11.857929773539972

>  <AmberAM1BCCCache>  (25) 
gASVEQQAAAAAAABdlCiMFm51bXB5Ll9jb3JlLm11bHRpYXJyYXmUjAZzY2FsYXKUk5SMBW51bXB5lIwFZHR5cGWUk5SMAmY4lImIh5RSlChLA4wBPJROTk5K/////0r/////SwB0lGJDCN8NBYDIcPU/lIaUUpRoA2gJQwgTLQLtFxwPwJSGlFKUaANoCUMIz24AN91Q6z+UhpRSlGgDaAlDCIMKjwUtrv6/lIaUUpRoA2gJQwifvPvloZP3v5SGlFKUaANoCUMIr15d8EJN9j+UhpRSlGgDaAlDCM54DdejriDAlIaUUpRoA2gJQwjCgY0d77cgQJSGlFKUaANoCUMIbA/4MsZPIcCUhpRSlGgDaAlDCIWRS5qRpRVAlIaUUpRoA2gJQwihv7XsJy4FwJSGlFKUaANoCUMIM7tEi9EZ4D+UhpRSlGgDaAlDCDDdrg9oAATAlIaUUpRoA2gJQwiQrxna8yCdv5SGlFKUaANoCUMIK5xXXEGYBsCUhpRSlGgDaAlDCGMsksm31wDAlIaUUpRoA2gJQwiuuA2d3bv3v5SGlFKUaANoCUMIq1gALmVa8b+UhpRSlGgDaAlDCLHSY35Tsva/lIaUUpRoA2gJQwhxUugpi3LsP5SGlFKUaANoCUMIolemAJNpDcCUhpRSlGgDaAlDCMFwLsJ8J+c/lIaUUpRoA2gJQwiM3mwcHNkfQJSGlFKUaANoCUMIDTBm5fPUHMCUhpRSlGgDaAlDCMFAbDUSChbAlIaUUpRoA2gJQwjBLdozcQPHP5SGlFKUaANoCUMI93C7bRyY+r+UhpRSlGgDaAlDCAu7z8i5o/e/lIaUUpRoA2gJQwiEntONe8HzP5SGlFKUaANoCUMItipAwTs0D8CUhpRSlGgDaAlDCFHjYGxNI/c/lIaUUpRoA2gJQwheg2PdX/DgP5SGlFKUaANoCUMIXoNj3V/w4D+UhpRSlGgDaAlDCF6DY91f8OA/lIaUUpRoA2gJQwhSXluCi2b6P5SGlFKUaANoCUMIUl5bgotm+j+UhpRSlGgDaAlDCL6qC20TpBRAlIaUUpRoA2gJQwjGXmnxB2gAQJSGlFKUaANoCUMICUCPuNmhAUCUhpRSlGgDaAlDCMNEExCScQFAlIaUUpRoA2gJQwjHCj94fbv9P5SGlFKUaANoCUMIxwo/eH27/T+UhpRSlGgDaAlDCB11x/arUvE/lIaUUpRoA2gJQwgddcf2q1LxP5SGlFKUaANoCUMIAd2WDd7KD0CUhpRSlGgDaAlDCAJYqw3rpvo/lIaUUpRoA2gJQwi//wqsJCz+P5SGlFKUaANoCUMI1J4sfn874T+UhpRSlGgDaAlDCNSeLH5/O+E/lIaUUpRoA2gJQwjUnix+fzvhP5SGlFKUZS4=

$$$$
CHEMBL3264996
     RDKit          3D

 64 68  0  0  0  0  0  0  0  0999 V2000
   -8.4523    6.1854   12.2890 C   0  0  0  0  0  0  0  0  0  0  0  0
   -7.1802    5.7049   12.0537 O   0  0  0  0  0  0  0  0  0  0  0  0
   -6.3297    6.2883   12.9360 C   0  0  0  0  0  0  0  0  0  0  0  0
   -6.6901    7.1009   13.7801 O   0  0  0  0  0  0  0  0  0  0  0  0
   -4.9394    5.7785   12.6965 C   0  0  0  0  0  0  0  0  0  0  0  0
   -4.7034    4.8507   11.6890 C   0  0  0  0  0  0  0  0  0  0  0  0
   -3.4153    4.3784   11.4671 C   0  0  0  0  0  0  0  0  0  0  0  0
   -2.3631    4.8339   12.2526 C   0  0  0  0  0  0  0  0  0  0  0  0
   -1.0100    4.3378   12.0195 N   0  0  0  0  0  0  0  0  0  0  0  0
   -0.5783    3.7648   10.8956 C   0  0  0  0  0  0  0  0  0  0  0  0
   -1.2977    3.5927    9.9160 O   0  0  0  0  0  0  0  0  0  0  0  0
    0.8660    3.3707   10.9895 C   0  0  0  0  0  0  0  0  0  0  0  0
    1.7879    3.8078   10.0318 C   0  0  0  0  0  0  0  0  0  0  0  0
    3.1294    3.4499   10.1277 C   0  0  0  0  0  0  0  0  0  0  0  0
    3.5566    2.6280   11.1666 C   0  0  0  0  0  0  0  0  0  0  0  0
    2.6564    2.1560   12.1340 C   0  0  0  0  0  0  0  0  0  0  0  0
    1.3140    2.5576   12.0419 C   0  0  0  0  0  0  0  0  0  0  0  0
    3.1227    1.2406   13.2181 C   0  0  0  0  0  0  0  0  0  0  0  0
    4.4207    1.3039   13.7175 C   0  0  0  0  0  0  0  0  0  0  0  0
    4.7482    0.4921   14.7654 N   0  0  0  0  0  0  0  0  0  0  0  0
    5.8898    0.3836   15.5035 C   0  0  0  0  0  0  0  0  0  0  0  0
    5.5715   -0.5089   16.5177 C   0  0  0  0  0  0  0  0  0  0  0  0
    4.3818   -1.0543   16.3920 N   0  0  0  0  0  0  0  0  0  0  0  0
    3.8330   -0.4170   15.3252 C   0  0  0  0  0  0  0  0  0  0  0  0
    2.5452   -0.4689   14.7536 C   0  0  0  0  0  0  0  0  0  0  0  0
    1.5930   -1.3491   15.3060 N   0  0  0  0  0  0  0  0  0  0  0  0
    0.2220   -1.5829   15.0890 C   0  0  0  0  0  0  0  0  0  0  0  0
   -0.3863   -2.6106   15.8150 C   0  0  0  0  0  0  0  0  0  0  0  0
   -1.7497   -2.8673   15.6804 C   0  0  0  0  0  0  0  0  0  0  0  0
   -2.5261   -2.1057   14.8053 C   0  0  0  0  0  0  0  0  0  0  0  0
   -3.8740   -2.3535   14.7166 O   0  0  0  0  0  0  0  0  0  0  0  0
   -4.2555   -3.1029   13.5707 C   0  0  0  0  0  0  0  0  0  0  0  0
   -1.9389   -1.0760   14.0580 C   0  0  0  0  0  0  0  0  0  0  0  0
   -2.6991   -0.3052   13.2022 O   0  0  0  0  0  0  0  0  0  0  0  0
   -2.0020    0.6747   12.5251 C   0  0  0  0  0  0  0  0  0  0  0  0
   -0.5664   -0.8256   14.2115 C   0  0  0  0  0  0  0  0  0  0  0  0
    2.2178    0.3551   13.7190 N   0  0  0  0  0  0  0  0  0  0  0  0
   -2.5991    5.7618   13.2601 C   0  0  0  0  0  0  0  0  0  0  0  0
   -3.8873    6.2341   13.4820 C   0  0  0  0  0  0  0  0  0  0  0  0
   -9.1495    5.7265   11.5880 H   0  0  0  0  0  0  0  0  0  0  0  0
   -8.4625    7.2672   12.1559 H   0  0  0  0  0  0  0  0  0  0  0  0
   -8.7497    5.9420   13.3091 H   0  0  0  0  0  0  0  0  0  0  0  0
   -5.5226    4.4960   11.0774 H   0  0  0  0  0  0  0  0  0  0  0  0
   -3.2316    3.6560   10.6827 H   0  0  0  0  0  0  0  0  0  0  0  0
   -0.4537    4.4986   12.8470 H   0  0  0  0  0  0  0  0  0  0  0  0
    1.4564    4.4350    9.2166 H   0  0  0  0  0  0  0  0  0  0  0  0
    3.8342    3.7939    9.3845 H   0  0  0  0  0  0  0  0  0  0  0  0
    4.5934    2.3309   11.2002 H   0  0  0  0  0  0  0  0  0  0  0  0
    0.6053    2.2130   12.7811 H   0  0  0  0  0  0  0  0  0  0  0  0
    5.1701    2.0030   13.3719 H   0  0  0  0  0  0  0  0  0  0  0  0
    6.7656    0.9739   15.2897 H   0  0  0  0  0  0  0  0  0  0  0  0
    6.2088   -0.8330   17.3301 H   0  0  0  0  0  0  0  0  0  0  0  0
    2.0245   -1.8852   16.0480 H   0  0  0  0  0  0  0  0  0  0  0  0
    0.1911   -3.2101   16.5029 H   0  0  0  0  0  0  0  0  0  0  0  0
   -2.2100   -3.6528   16.2607 H   0  0  0  0  0  0  0  0  0  0  0  0
   -5.3306   -3.2805   13.5887 H   0  0  0  0  0  0  0  0  0  0  0  0
   -3.7531   -4.0710   13.5510 H   0  0  0  0  0  0  0  0  0  0  0  0
   -4.0176   -2.5677   12.6505 H   0  0  0  0  0  0  0  0  0  0  0  0
   -2.6851    1.2257   11.8788 H   0  0  0  0  0  0  0  0  0  0  0  0
   -1.2219    0.2131   11.9198 H   0  0  0  0  0  0  0  0  0  0  0  0
   -1.5485    1.3591   13.2420 H   0  0  0  0  0  0  0  0  0  0  0  0
   -0.1547   -0.0168   13.6337 H   0  0  0  0  0  0  0  0  0  0  0  0
   -1.7800    6.1164   13.8717 H   0  0  0  0  0  0  0  0  0  0  0  0
   -4.0710    6.9565   14.2664 H   0  0  0  0  0  0  0  0  0  0  0  0
  1  2  1  0
  1 40  1  0
  1 41  1  0
  1 42  1  0
  2  3  1  0
  3  4  2  0
  3  5  1  0
  5  6  2  0
  5 39  1  0
  6  7  1  0
  6 43  1  0
  7  8  2  0
  7 44  1  0
  8  9  1  0
  8 38  1  0
  9 10  1  0
  9 45  1  0
 10 11  2  0
 10 12  1  0
 12 13  2  0
 12 17  1  0
 13 14  1  0
 13 46  1  0
 14 15  2  0
 14 47  1  0
 15 16  1  0
 15 48  1  0
 16 17  2  0
 16 18  1  0
 17 49  1  0
 18 19  2  0
 18 37  1  0
 19 20  1  0
 19 50  1  0
 20 21  1  0
 20 24  1  0
 21 22  2  0
 21 51  1  0
 22 23  1  0
 22 52  1  0
 23 24  2  0
 24 25  1  0
 25 26  1  0
 25 37  2  0
 26 27  1  0
 26 53  1  0
 27 28  2  0
 27 36  1  0
 28 29  1  0
 28 54  1  0
 29 30  2  0
 29 55  1  0
 30 31  1  0
 30 33  1  0
 31 32  1  0
 32 56  1  0
 32 57  1  0
 32 58  1  0
 33 34  1  0
 33 36  2  0
 34 35  1  0
 35 59  1  0
 35 60  1  0
 35 61  1  0
 36 62  1  0
 38 39  2  0
 38 63  1  0
 39 64  1  0
M  END
>  <IC50[nM]>  (26) 
15.199999999999999

>  <atom.dprop.PartialCharge>  (26) 
0.12777397 -0.4363777 0.64259946 -0.5298197 -0.13597026 -0.063058995 -0.1606836 0.08676337 -0.48433825 0.68490624 -0.57167435 -0.14444096 -0.095414445 -0.13701165 -0.078536004 -0.07419182 -0.07341559 0.16938563 -0.11946846 -0.063137785 -0.28813612 0.32823637 -0.62417823 0.26802248 0.6153552 -0.69646716 0.128402 -0.115760855 -0.1442883 0.08478266 -0.3240348 0.11298208 0.08322905 -0.3305605 0.11815128 -0.1233159 -0.6182378 -0.1606836 -0.063058995 0.051862344 0.051862344 0.051862344 0.1486902 0.14862975 0.31598276 0.14485376 0.1408677 0.14088707 0.15461878 0.17788905 0.18197623 0.051756345 0.44191894 0.14487515 0.14451613 0.045607638 0.045607638 0.045607638 0.04281436 0.04281436 0.04281436 0.15003665 0.14862975 0.1486902

>  <experimental dG reference units>  (26) 
nM

>  <experimental dG reference field>  (26) 
IC50[nM]

>  <kJ/mol experimental dG>  (26) 
-44.90327544107416

>  <kcal/mol experimental dG>  (26) 
-10.732140401786365

>  <AmberAM1BCCCache>  (26) 
gASVGwUAAAAAAABdlCiMFm51bXB5Ll9jb3JlLm11bHRpYXJyYXmUjAZzY2FsYXKUk5SMBW51bXB5lIwFZHR5cGWUk5SMAmY4lImIh5RSlChLA4wBPJROTk5K/////0r/////SwB0lGJDCPI/2wTtRfg/lIaUUpRoA2gJQwhTJwz/O9MUwJSGlFKUaANoCUMIGWhLuvChHkCUhpRSlGgDaAlDCL7DEfJx0RnAlIaUUpRoA2gJQwgRD7pYscv/v5SGlFKUaANoCUMIeJPp6DAH4L+UhpRSlGgDaAlDCL1mi3MaOgLAlIaUUpRoA2gJQwgdCnA7OEv0P5SGlFKUaANoCUMIXJ+vkQUqFsCUhpRSlGgDaAlDCIogJfQfGCBAlIaUUpRoA2gJQwjov0jR/P0awJSGlFKUaANoCUMI/VV2eX73/L+UhpRSlGgDaAlDCE3DVXshe/K/lIaUUpRoA2gJQwj49yjIKpf6v5SGlFKUaANoCUMIxqukKOhE6b+UhpRSlGgDaAlDCIYId/ov7vm/lIaUUpRoA2gJQwhnj4wblmbqv5SGlFKUaANoCUMIQTdBjlxZFUCUhpRSlGgDaAlDCGqYvqNsVATAlIaUUpRoA2gJQwg0gPNoLLXeP5SGlFKUaANoCUMIyKcrwIO3A8CUhpRSlGgDaAlDCOhve3WK5Jy/lIaUUpRoA2gJQwjDZtQMXU8GwJSGlFKUaANoCUMInvRMTvemAMCUhpRSlGgDaAlDCOHQP1INuCBAlIaUUpRoA2gJQwh4KvGweaYgwJSGlFKUaANoCUMIRbCjvIng9z+UhpRSlGgDaAlDCFgUQdV8dfm/lIaUUpRoA2gJQwjyj9BCU73+v5SGlFKUaANoCUMIwzta0kdQ8j+UhpRSlGgDaAlDCGowr7fXjwzAlIaUUpRoA2gJQwgNlSMs4+D0P5SGlFKUaANoCUMI5xiRmfm+9T+UhpRSlGgDaAlDCLArK2AfwAzAlIaUUpRoA2gJQwjImaeDm7D0P5SGlFKUaANoCUMIxx+GuQr5AMCUhpRSlGgDaAlDCLm+GeG/XyHAlIaUUpRoA2gJQwi9ZotzGjoCwJSGlFKUaANoCUMIeJPp6DAH4L+UhpRSlGgDaAlDCJzstA/BGeM/lIaUUpRoA2gJQwic7LQPwRnjP5SGlFKUaANoCUMInOy0D8EZ4z+UhpRSlGgDaAlDCDOCpQCHzP0/lIaUUpRoA2gJQwjthilYP5z9P5SGlFKUaANoCUMIij7qjSVRDkCUhpRSlGgDaAlDCMXg9dbtBvo/lIaUUpRoA2gJQwhdMuRVXNv6P5SGlFKUaANoCUMIp4utr/dr/T+UhpRSlGgDaAlDCLEdpyM3uf0/lIaUUpRoA2gJQwjomHCYpIAAQJSGlFKUaANoCUMILHqWX3a6AUCUhpRSlGgDaAlDCOZ+GrcuigFAlIaUUpRoA2gJQwiITBMYGoAUQJSGlFKUaANoCUMIC9xxfzU3+j+UhpRSlGgDaAlDCJTSadDEl/o/lIaUUpRoA2gJQwi7o2EnRHzgP5SGlFKUaANoCUMIu6NhJ0R84D+UhpRSlGgDaAlDCLujYSdEfOA/lIaUUpRoA2gJQwgxSAtBOx3hP5SGlFKUaANoCUMIMUgLQTsd4T+UhpRSlGgDaAlDCDFIC0E7HeE/lIaUUpRoA2gJQwjBrEkUAhr8P5SGlFKUaANoCUMI7YYpWD+c/T+UhpRSlGgDaAlDCDOCpQCHzP0/lIaUUpRlLg==

$$$$
CHEMBL3265031
     RDKit          3D

 58 63  0  0  0  0  0  0  0  0999 V2000
   -6.8350   -5.5126   14.3646 C   0  0  0  0  0  0  0  0  0  0  0  0
   -6.2469   -4.1256   14.5196 C   0  0  0  0  0  0  0  0  0  0  0  0
   -7.2986   -3.1815   14.6326 O   0  0  0  0  0  0  0  0  0  0  0  0
   -5.3943   -4.0373   15.7957 C   0  0  0  0  0  0  0  0  0  0  0  0
   -4.6708   -2.7036   15.9246 C   0  0  0  0  0  0  0  0  0  0  0  0
   -3.8604   -2.3511   14.7445 N   0  0  0  0  0  0  0  0  0  0  0  0
   -4.6320   -2.3959   13.4920 C   0  0  0  0  0  0  0  0  0  0  0  0
   -5.3661   -3.7377   13.3163 C   0  0  0  0  0  0  0  0  0  0  0  0
   -2.5090   -2.1078   14.8185 C   0  0  0  0  0  0  0  0  0  0  0  0
   -1.9132   -1.0937   14.0521 C   0  0  0  0  0  0  0  0  0  0  0  0
   -0.5452   -0.8202   14.1949 C   0  0  0  0  0  0  0  0  0  0  0  0
    0.2267   -1.5891   15.0857 C   0  0  0  0  0  0  0  0  0  0  0  0
    1.6093   -1.3706   15.3172 N   0  0  0  0  0  0  0  0  0  0  0  0
    2.5356   -0.4465   14.7610 C   0  0  0  0  0  0  0  0  0  0  0  0
    2.1744    0.3801   13.7331 N   0  0  0  0  0  0  0  0  0  0  0  0
    3.1091    1.2393   13.2182 C   0  0  0  0  0  0  0  0  0  0  0  0
    4.4162    1.2819   13.6993 C   0  0  0  0  0  0  0  0  0  0  0  0
    4.7443    0.4889   14.7568 N   0  0  0  0  0  0  0  0  0  0  0  0
    5.8980    0.3793   15.4854 C   0  0  0  0  0  0  0  0  0  0  0  0
    5.5914   -0.5292   16.5255 C   0  0  0  0  0  0  0  0  0  0  0  0
    4.3788   -1.0451   16.3697 N   0  0  0  0  0  0  0  0  0  0  0  0
    3.8374   -0.3956   15.3255 C   0  0  0  0  0  0  0  0  0  0  0  0
    2.6339    2.1607   12.1207 C   0  0  0  0  0  0  0  0  0  0  0  0
    3.5443    2.6413   11.1620 C   0  0  0  0  0  0  0  0  0  0  0  0
    3.1470    3.4630   10.1086 C   0  0  0  0  0  0  0  0  0  0  0  0
    1.8016    3.8175   10.0163 C   0  0  0  0  0  0  0  0  0  0  0  0
    0.9929    4.5961    9.1183 C   0  0  0  0  0  0  0  0  0  0  0  0
   -0.2479    4.6060    9.5144 N   0  0  0  0  0  0  0  0  0  0  0  0
   -0.3355    3.8922   10.6289 N   0  0  0  0  0  0  0  0  0  0  0  0
    0.8848    3.3596   10.9956 C   0  0  0  0  0  0  0  0  0  0  0  0
    1.2708    2.5377   12.0624 C   0  0  0  0  0  0  0  0  0  0  0  0
   -0.3834   -2.6137   15.8106 C   0  0  0  0  0  0  0  0  0  0  0  0
   -1.7318   -2.8604   15.6854 C   0  0  0  0  0  0  0  0  0  0  0  0
   -6.0467   -6.2631   14.3371 H   0  0  0  0  0  0  0  0  0  0  0  0
   -7.4067   -5.5754   13.4421 H   0  0  0  0  0  0  0  0  0  0  0  0
   -7.4975   -5.7395   15.1969 H   0  0  0  0  0  0  0  0  0  0  0  0
   -7.8476   -3.4517   15.3749 H   0  0  0  0  0  0  0  0  0  0  0  0
   -6.0063   -4.2224   16.6815 H   0  0  0  0  0  0  0  0  0  0  0  0
   -4.6544   -4.8417   15.8115 H   0  0  0  0  0  0  0  0  0  0  0  0
   -4.0494   -2.7060   16.8283 H   0  0  0  0  0  0  0  0  0  0  0  0
   -5.3818   -1.8934   16.0953 H   0  0  0  0  0  0  0  0  0  0  0  0
   -3.9484   -2.2562   12.6532 H   0  0  0  0  0  0  0  0  0  0  0  0
   -5.3571   -1.5966   13.4338 H   0  0  0  0  0  0  0  0  0  0  0  0
   -5.9794   -3.7294   12.4113 H   0  0  0  0  0  0  0  0  0  0  0  0
   -4.6376   -4.5315   13.1300 H   0  0  0  0  0  0  0  0  0  0  0  0
   -2.5174   -0.4949   13.3813 H   0  0  0  0  0  0  0  0  0  0  0  0
   -0.1094   -0.0194   13.6338 H   0  0  0  0  0  0  0  0  0  0  0  0
    2.0065   -1.9728   16.0216 H   0  0  0  0  0  0  0  0  0  0  0  0
    5.1781    1.9583   13.3366 H   0  0  0  0  0  0  0  0  0  0  0  0
    6.7839    0.9561   15.2754 H   0  0  0  0  0  0  0  0  0  0  0  0
    6.2312   -0.8046   17.3482 H   0  0  0  0  0  0  0  0  0  0  0  0
    4.5843    2.3478   11.2246 H   0  0  0  0  0  0  0  0  0  0  0  0
    3.8596    3.8053    9.3796 H   0  0  0  0  0  0  0  0  0  0  0  0
    1.3020    5.1188    8.2316 H   0  0  0  0  0  0  0  0  0  0  0  0
   -1.2247    3.7893   11.0947 H   0  0  0  0  0  0  0  0  0  0  0  0
    0.5687    2.2070   12.8051 H   0  0  0  0  0  0  0  0  0  0  0  0
    0.2004   -3.2162   16.4903 H   0  0  0  0  0  0  0  0  0  0  0  0
   -2.1848   -3.6574   16.2613 H   0  0  0  0  0  0  0  0  0  0  0  0
  1  2  1  0
  1 34  1  0
  1 35  1  0
  1 36  1  0
  2  3  1  0
  2  4  1  0
  2  8  1  0
  3 37  1  0
  4  5  1  0
  4 38  1  0
  4 39  1  0
  5  6  1  0
  5 40  1  0
  5 41  1  0
  6  7  1  0
  6  9  1  0
  7  8  1  0
  7 42  1  0
  7 43  1  0
  8 44  1  0
  8 45  1  0
  9 10  2  0
  9 33  1  0
 10 11  1  0
 10 46  1  0
 11 12  2  0
 11 47  1  0
 12 13  1  0
 12 32  1  0
 13 14  1  0
 13 48  1  0
 14 15  2  0
 14 22  1  0
 15 16  1  0
 16 17  2  0
 16 23  1  0
 17 18  1  0
 17 49  1  0
 18 19  1  0
 18 22  1  0
 19 20  2  0
 19 50  1  0
 20 21  1  0
 20 51  1  0
 21 22  2  0
 23 24  2  0
 23 31  1  0
 24 25  1  0
 24 52  1  0
 25 26  2  0
 25 53  1  0
 26 27  1  0
 26 30  1  0
 27 28  2  0
 27 54  1  0
 28 29  1  0
 29 30  1  0
 29 55  1  0
 30 31  2  0
 31 56  1  0
 32 33  2  0
 32 57  1  0
 33 58  1  0
M  END
>  <IC50[nM]>  (27) 
1.3999999999999999

>  <atom.dprop.PartialCharge>  (27) 
-0.12118172 0.14611492 -0.5884766 -0.099761374 0.22750291 -0.69560456 0.22750291 -0.099761374 0.11470559 -0.1304066 -0.12389057 0.120227344 -0.6931401 0.61047727 -0.62114304 0.15602626 -0.11724216 -0.06528085 -0.28896016 0.3273096 -0.6251055 0.26608336 -0.04211012 -0.13252573 -0.059561778 -0.20969708 0.34950402 -0.40406293 -0.3993978 0.08041293 -0.11791038 -0.12389057 -0.1304066 0.04333114 0.04333114 0.04333114 0.3991226 0.055875003 0.055875003 0.039014764 0.039014764 0.039014764 0.039014764 0.055875003 0.055875003 0.13631754 0.13997859 0.44313142 0.17651038 0.18104929 0.050829425 0.13698924 0.13864611 0.056233466 0.47564232 0.1433514 0.13997859 0.13631754

>  <experimental dG reference units>  (27) 
nM

>  <experimental dG reference field>  (27) 
IC50[nM]

>  <kJ/mol experimental dG>  (27) 
-50.85186718967576

>  <kcal/mol experimental dG>  (27) 
-12.153887951643345

>  <AmberAM1BCCCache>  (27) 
gASVqQQAAAAAAABdlCiMFm51bXB5Ll9jb3JlLm11bHRpYXJyYXmUjAZzY2FsYXKUk5SMBW51bXB5lIwFZHR5cGWUk5SMAmY4lImIh5RSlChLA4wBPJROTk5K/////0r/////SwB0lGJDCLYx2ozvLPe/lIaUUpRoA2gJQwjOVxi/loT8P5SGlFKUaANoCUMIs6WHJf5EHMCUhpRSlGgDaAlDCN9MyOoQAvK/lIaUUpRoA2gJQwi3mPpuYBYCQJSGlFKUaANoCUMIbHZfusonHsCUhpRSlGgDaAlDCLeY+m5gFgJAlIaUUpRoA2gJQwjfTMjqEALyv5SGlFKUaANoCUMIXIK80hHS+j+UhpRSlGgDaAlDCBeiNHcR8v6/lIaUUpRoA2gJQwii40W2CB/yv5SGlFKUaANoCUMIamuDFsAf7T+UhpRSlGgDaAlDCFpyal+8cyDAlIaUUpRoA2gJQwhFke08TZYgQJSGlFKUaANoCUMINlCAVJlNIcCUhpRSlGgDaAlDCHQVVb2XcRVAlIaUUpRoA2gJQwg+K8OYiBAFwJSGlFKUaANoCUMIsrEYrW8c4D+UhpRSlGgDaAlDCDLdd1vkFwTAlIaUUpRoA2gJQwiR2EzfjG+kv5SGlFKUaANoCUMIlDDcR9nkBsCUhpRSlGgDaAlDCLbTJhMxYwDAlIaUUpRoA2gJQwhExy2ptkDzv5SGlFKUaANoCUMI0gEdyiML97+UhpRSlGgDaAlDCFuU5fNLBeq/lIaUUpRoA2gJQwj8VkjC8VEDwJSGlFKUaANoCUMIFfack46REECUhpRSlGgDaAlDCHQnEK2gHRjAlIaUUpRoA2gJQwiAyRrAXcfJv5SGlFKUaANoCUMIDzscmrB057+UhpRSlGgDaAlDCMByetlYqvi/lIaUUpRoA2gJQwii40W2CB/yv5SGlFKUaANoCUMIF6I0dxHy/r+UhpRSlGgDaAlDCFT8mGkwneA/lIaUUpRoA2gJQwhU/JhpMJ3gP5SGlFKUaANoCUMIVPyYaTCd4D+UhpRSlGgDaAlDCGYlDpgExBJAlIaUUpRoA2gJQwi4OQdNK/DmP5SGlFKUaANoCUMIuDkHTSvw5j+UhpRSlGgDaAlDCNhsOQlQ2N8/lIaUUpRoA2gJQwjYbDkJUNjfP5SGlFKUaANoCUMI2Gw5CVDY3z+UhpRSlGgDaAlDCNhsOQlQ2N8/lIaUUpRoA2gJQwi4OQdNK/DmP5SGlFKUaANoCUMIuDkHTSvw5j+UhpRSlGgDaAlDCD0D07yzw/k/lIaUUpRoA2gJQwgujoatXln6P5SGlFKUaANoCUMIwQDP8S86FECUhpRSlGgDaAlDCMYnnV8rdwBAlIaUUpRoA2gJQwhnC4VS2ZgBQJSGlFKUaANoCUMIgRLL1W1QAUCUhpRSlGgDaAlDCIwlmdDuevw/lIaUUpRoA2gJQwjf5rqvYeX6P5SGlFKUaANoCUMIiZYqT05H5T+UhpRSlGgDaAlDCBZ3pH6Fow1AlIaUUpRoA2gJQwhYub8Ycqv6P5SGlFKUaANoCUMILo6GrV5Z+j+UhpRSlGgDaAlDCD0D07yzw/k/lIaUUpRlLg==

$$$$
CHEMBL3265013
     RDKit          3D

 51 54  0  0  0  0  0  0  0  0999 V2000
   -4.2553   -3.1063   13.5659 C   0  0  0  0  0  0  0  0  0  0  0  0
   -3.8742   -2.3531   14.7065 O   0  0  0  0  0  0  0  0  0  0  0  0
   -2.5276   -2.1063   14.8134 C   0  0  0  0  0  0  0  0  0  0  0  0
   -1.7534   -2.8662   15.6836 C   0  0  0  0  0  0  0  0  0  0  0  0
   -0.3974   -2.6067   15.8226 C   0  0  0  0  0  0  0  0  0  0  0  0
    0.2193   -1.5855   15.0957 C   0  0  0  0  0  0  0  0  0  0  0  0
    1.6033   -1.3619   15.3321 N   0  0  0  0  0  0  0  0  0  0  0  0
    2.5310   -0.4394   14.7826 C   0  0  0  0  0  0  0  0  0  0  0  0
    2.1681    0.3851   13.7534 N   0  0  0  0  0  0  0  0  0  0  0  0
    3.1084    1.2291   13.2323 C   0  0  0  0  0  0  0  0  0  0  0  0
    4.4111    1.2775   13.7062 C   0  0  0  0  0  0  0  0  0  0  0  0
    4.7446    0.4849   14.7663 N   0  0  0  0  0  0  0  0  0  0  0  0
    5.8943    0.3819   15.4817 C   0  0  0  0  0  0  0  0  0  0  0  0
    5.5914   -0.5326   16.5146 C   0  0  0  0  0  0  0  0  0  0  0  0
    4.3838   -1.0600   16.3570 N   0  0  0  0  0  0  0  0  0  0  0  0
    3.8360   -0.3910   15.3315 C   0  0  0  0  0  0  0  0  0  0  0  0
    2.6494    2.1359   12.1286 C   0  0  0  0  0  0  0  0  0  0  0  0
    3.5584    2.6335   11.1783 C   0  0  0  0  0  0  0  0  0  0  0  0
    3.1269    3.4578   10.1469 C   0  0  0  0  0  0  0  0  0  0  0  0
    1.7725    3.8115   10.0354 C   0  0  0  0  0  0  0  0  0  0  0  0
    1.3343    4.6941    8.8847 C   0  0  0  0  0  0  0  0  0  0  0  0
    2.0989    5.5193    8.3952 O   0  0  0  0  0  0  0  0  0  0  0  0
    0.0978    4.4815    8.4258 N   0  0  0  0  0  0  0  0  0  0  0  0
    0.8524    3.3384   11.0121 C   0  0  0  0  0  0  0  0  0  0  0  0
   -0.6224    3.7518   10.9890 C   0  0  0  0  0  0  0  0  0  0  0  0
    1.2991    2.5101   12.0360 C   0  0  0  0  0  0  0  0  0  0  0  0
   -0.5507   -0.8158   14.1957 C   0  0  0  0  0  0  0  0  0  0  0  0
   -1.9415   -1.0842   14.0609 C   0  0  0  0  0  0  0  0  0  0  0  0
   -2.7452   -0.3406   13.2070 O   0  0  0  0  0  0  0  0  0  0  0  0
   -2.1924    0.4470   12.1700 C   0  0  0  0  0  0  0  0  0  0  0  0
   -5.3356   -3.2496   13.5811 H   0  0  0  0  0  0  0  0  0  0  0  0
   -3.7889   -4.0922   13.5603 H   0  0  0  0  0  0  0  0  0  0  0  0
   -4.0032   -2.5893   12.6399 H   0  0  0  0  0  0  0  0  0  0  0  0
   -2.2026   -3.6557   16.2609 H   0  0  0  0  0  0  0  0  0  0  0  0
    0.1866   -3.2024   16.5111 H   0  0  0  0  0  0  0  0  0  0  0  0
    1.9910   -1.9452   16.0564 H   0  0  0  0  0  0  0  0  0  0  0  0
    5.1687    1.9466   13.3246 H   0  0  0  0  0  0  0  0  0  0  0  0
    6.7729    0.9741   15.2789 H   0  0  0  0  0  0  0  0  0  0  0  0
    6.2395   -0.8158   17.3246 H   0  0  0  0  0  0  0  0  0  0  0  0
    4.5960    2.3576   11.2295 H   0  0  0  0  0  0  0  0  0  0  0  0
    3.8409    3.8102    9.4155 H   0  0  0  0  0  0  0  0  0  0  0  0
   -0.2537    5.0105    7.6461 H   0  0  0  0  0  0  0  0  0  0  0  0
   -0.4831    3.7720    8.8458 H   0  0  0  0  0  0  0  0  0  0  0  0
   -1.1053    3.5651   11.9422 H   0  0  0  0  0  0  0  0  0  0  0  0
   -1.1697    3.2135   10.2168 H   0  0  0  0  0  0  0  0  0  0  0  0
   -0.7255    4.8289   10.8204 H   0  0  0  0  0  0  0  0  0  0  0  0
    0.6002    2.1680   12.7776 H   0  0  0  0  0  0  0  0  0  0  0  0
   -0.1045   -0.0276   13.6335 H   0  0  0  0  0  0  0  0  0  0  0  0
   -3.0148    0.9031   11.6158 H   0  0  0  0  0  0  0  0  0  0  0  0
   -1.6244   -0.1596   11.4651 H   0  0  0  0  0  0  0  0  0  0  0  0
   -1.5752    1.2513   12.5580 H   0  0  0  0  0  0  0  0  0  0  0  0
  1  2  1  0
  1 31  1  0
  1 32  1  0
  1 33  1  0
  2  3  1  0
  3  4  2  0
  3 28  1  0
  4  5  1  0
  4 34  1  0
  5  6  2  0
  5 35  1  0
  6  7  1  0
  6 27  1  0
  7  8  1  0
  7 36  1  0
  8  9  2  0
  8 16  1  0
  9 10  1  0
 10 11  2  0
 10 17  1  0
 11 12  1  0
 11 37  1  0
 12 13  1  0
 12 16  1  0
 13 14  2  0
 13 38  1  0
 14 15  1  0
 14 39  1  0
 15 16  2  0
 17 18  2  0
 17 26  1  0
 18 19  1  0
 18 40  1  0
 19 20  2  0
 19 41  1  0
 20 21  1  0
 20 24  1  0
 21 22  2  0
 21 23  1  0
 23 42  1  0
 23 43  1  0
 24 25  1  0
 24 26  2  0
 25 44  1  0
 25 45  1  0
 25 46  1  0
 26 47  1  0
 27 28  2  0
 27 48  1  0
 28 29  1  0
 29 30  1  0
 30 49  1  0
 30 50  1  0
 30 51  1  0
M  END
>  <IC50[nM]>  (28) 
64.099999999999994

>  <atom.dprop.PartialCharge>  (28) 
0.11247641 -0.32454056 0.084277004 -0.144794 -0.11626654 0.12789634 -0.6969731 0.61529815 -0.61978716 0.16199975 -0.119679905 -0.06338412 -0.28864184 0.32773077 -0.6246841 0.2675168 -0.042585727 -0.12220146 -0.09037191 -0.13209575 0.6755482 -0.59577554 -0.68413997 -0.030520085 -0.05903673 -0.12926012 -0.1238216 0.08272339 -0.33106625 0.11764561 0.04510195 0.04510195 0.04510195 0.14401042 0.14436945 0.44141322 0.17743686 0.18147053 0.05125065 0.14163806 0.147547 0.31386566 0.31386566 0.051312327 0.051312327 0.051312327 0.14394635 0.14953095 0.042308673 0.042308673 0.042308673

>  <experimental dG reference units>  (28) 
nM

>  <experimental dG reference field>  (28) 
IC50[nM]

>  <kJ/mol experimental dG>  (28) 
-41.31352945167782

>  <kcal/mol experimental dG>  (28) 
-9.874170519043457

>  <AmberAM1BCCCache>  (28) 
gASVJAQAAAAAAABdlCiMFm51bXB5Ll9jb3JlLm11bHRpYXJyYXmUjAZzY2FsYXKUk5SMBW51bXB5lIwFZHR5cGWUk5SMAmY4lImIh5RSlChLA4wBPJROTk5K/////0r/////SwB0lGJDCEd5Tvh64vQ/lIaUUpRoA2gJQwhNvpnRC48MwJSGlFKUaANoCUMIhxZ9726y8j+UhpRSlGgDaAlDCP+mIR8D7P6/lIaUUpRoA2gJQwiVOR64VRP5v5SGlFKUaANoCUMIrqJaj0pR9z+UhpRSlGgDaAlDCB/PTM00miDAlIaUUpRoA2gJQwjGL4d3HKAgQJSGlFKUaANoCUMIJuVGHmBBIcCUhpRSlGgDaAlDCPLtiVXmcRVAlIaUUpRoA2gJQwgeGB23d+QEwJSGlFKUaANoCUMILv6OO6p83z+UhpRSlGgDaAlDCDcsDitHFwTAlIaUUpRoA2gJQwjFYcJql36cv5SGlFKUaANoCUMISvL8+rRmBsCUhpRSlGgDaAlDCIKCN2grpgDAlIaUUpRoA2gJQwhVjKSzb8b1v5SGlFKUaANoCUMIoNUiABna8r+UhpRSlGgDaAlDCKMJz8IEx/C/lIaUUpRoA2gJQwiH3ieKdp/4v5SGlFKUaANoCUMIUwjh4c6fH0CUhpRSlGgDaAlDCHBLgWzKVhzAlIaUUpRoA2gJQwiADMYF1d4fwJSGlFKUaANoCUMI8gdFnUq247+UhpRSlGgDaAlDCBuueB6cS+e/lIaUUpRoA2gJQwjER6q+foL4v5SGlFKUaANoCUMIw7S2VtOvAMCUhpRSlGgDaAlDCJnPwM6hhvU/lIaUUpRoA2gJQwiTuRV6U78MwJSGlFKUaANoCUMIAX7STzOy9D+UhpRSlGgDaAlDCN1HlPtfb+A/lIaUUpRoA2gJQwjdR5T7X2/gP5SGlFKUaANoCUMI3UeU+19v4D+UhpRSlGgDaAlDCMy2lJxcmfo/lIaUUpRoA2gJQwiIuxj0FGn6P5SGlFKUaANoCUMIxgb/IG50FECUhpRSlGgDaAlDCGENSKpMaQBAlIaUUpRoA2gJQwgC8S+d+ooBQJSGlFKUaANoCUMIMfIQs+h+AUCUhpRSlGgDaAlDCOBv2HuPbf0/lIaUUpRoA2gJQwgPfmSCuNz8P5SGlFKUaANoCUMI7sXR/a54DUCUhpRSlGgDaAlDCO7F0f2ueA1AlIaUUpRoA2gJQwgPfM0t9+LiP5SGlFKUaANoCUMID3zNLffi4j+UhpRSlGgDaAlDCA98zS334uI/lIaUUpRoA2gJQwhyzihS9qf5P5SGlFKUaANoCUMI+ZB04Jkb/D+UhpRSlGgDaAlDCLhirxAD4OA/lIaUUpRoA2gJQwi4Yq8QA+DgP5SGlFKUaANoCUMIuGKvEAPg4D+UhpRSlGUu

$$$$
CHEMBL3265030_n
     RDKit          3D

 52 57  0  0  0  0  0  0  0  0999 V2000
   -6.0443   -4.4602   16.2962 C   0  0  0  0  0  0  0  0  0  0  0  0
   -5.6240   -3.4001   15.2728 C   0  0  0  0  0  0  0  0  0  0  0  0
   -6.7329   -2.9884   14.5080 O   0  0  0  0  0  0  0  0  0  0  0  0
   -4.7833   -2.2666   15.8350 C   0  0  0  0  0  0  0  0  0  0  0  0
   -3.8370   -2.3937   14.7064 N   0  0  0  0  0  0  0  0  0  0  0  0
   -4.3873   -3.7457   14.4627 C   0  0  0  0  0  0  0  0  0  0  0  0
   -2.4739   -2.0989   14.7890 C   0  0  0  0  0  0  0  0  0  0  0  0
   -1.8935   -1.0737   14.0433 C   0  0  0  0  0  0  0  0  0  0  0  0
   -0.5352   -0.8073   14.1963 C   0  0  0  0  0  0  0  0  0  0  0  0
    0.2332   -1.5617   15.0991 C   0  0  0  0  0  0  0  0  0  0  0  0
    1.5948   -1.3216   15.3436 N   0  0  0  0  0  0  0  0  0  0  0  0
    2.5323   -0.4320   14.7835 C   0  0  0  0  0  0  0  0  0  0  0  0
    2.1832    0.3856   13.7527 N   0  0  0  0  0  0  0  0  0  0  0  0
    3.0997    1.2392   13.2138 C   0  0  0  0  0  0  0  0  0  0  0  0
    4.4085    1.2886   13.6971 C   0  0  0  0  0  0  0  0  0  0  0  0
    4.7393    0.4966   14.7557 N   0  0  0  0  0  0  0  0  0  0  0  0
    5.8912    0.3843   15.4874 C   0  0  0  0  0  0  0  0  0  0  0  0
    5.6000   -0.5403   16.4969 C   0  0  0  0  0  0  0  0  0  0  0  0
    4.3900   -1.0499   16.3863 N   0  0  0  0  0  0  0  0  0  0  0  0
    3.8285   -0.3910   15.3363 C   0  0  0  0  0  0  0  0  0  0  0  0
    2.6272    2.1508   12.1213 C   0  0  0  0  0  0  0  0  0  0  0  0
    3.5370    2.6346   11.1631 C   0  0  0  0  0  0  0  0  0  0  0  0
    3.1492    3.4622   10.1085 C   0  0  0  0  0  0  0  0  0  0  0  0
    1.8011    3.8208   10.0156 C   0  0  0  0  0  0  0  0  0  0  0  0
    0.9990    4.5979    9.1271 C   0  0  0  0  0  0  0  0  0  0  0  0
   -0.2497    4.6170    9.5128 N   0  0  0  0  0  0  0  0  0  0  0  0
   -0.3315    3.8838   10.6343 N   0  0  0  0  0  0  0  0  0  0  0  0
    0.8874    3.3527   10.9946 C   0  0  0  0  0  0  0  0  0  0  0  0
    1.2729    2.5247   12.0514 C   0  0  0  0  0  0  0  0  0  0  0  0
   -0.3672   -2.5916   15.8262 C   0  0  0  0  0  0  0  0  0  0  0  0
   -1.7168   -2.8552   15.6739 C   0  0  0  0  0  0  0  0  0  0  0  0
   -5.2050   -4.7984   16.9035 H   0  0  0  0  0  0  0  0  0  0  0  0
   -6.8054   -4.0661   16.9698 H   0  0  0  0  0  0  0  0  0  0  0  0
   -6.4675   -5.3321   15.7974 H   0  0  0  0  0  0  0  0  0  0  0  0
   -6.4046   -2.3323   13.8881 H   0  0  0  0  0  0  0  0  0  0  0  0
   -4.3284   -2.4863   16.8029 H   0  0  0  0  0  0  0  0  0  0  0  0
   -5.2892   -1.3024   15.8976 H   0  0  0  0  0  0  0  0  0  0  0  0
   -4.5733   -3.9761   13.4129 H   0  0  0  0  0  0  0  0  0  0  0  0
   -3.7850   -4.5482   14.8924 H   0  0  0  0  0  0  0  0  0  0  0  0
   -2.4933   -0.4925   13.3604 H   0  0  0  0  0  0  0  0  0  0  0  0
   -0.1177   -0.0073   13.6132 H   0  0  0  0  0  0  0  0  0  0  0  0
    2.0095   -1.8739   16.0815 H   0  0  0  0  0  0  0  0  0  0  0  0
    5.1692    1.9645   13.3454 H   0  0  0  0  0  0  0  0  0  0  0  0
    6.7768    0.9622   15.2769 H   0  0  0  0  0  0  0  0  0  0  0  0
    6.2732   -0.8674   17.2818 H   0  0  0  0  0  0  0  0  0  0  0  0
    4.5724    2.3319   11.2116 H   0  0  0  0  0  0  0  0  0  0  0  0
    3.8628    3.8049    9.3741 H   0  0  0  0  0  0  0  0  0  0  0  0
    1.3157    5.1254    8.2407 H   0  0  0  0  0  0  0  0  0  0  0  0
   -1.2162    3.7634   11.1025 H   0  0  0  0  0  0  0  0  0  0  0  0
    0.5632    2.1669   12.7820 H   0  0  0  0  0  0  0  0  0  0  0  0
    0.2126   -3.1777   16.5228 H   0  0  0  0  0  0  0  0  0  0  0  0
   -2.1693   -3.6422   16.2570 H   0  0  0  0  0  0  0  0  0  0  0  0
  1  2  1  0
  1 32  1  0
  1 33  1  0
  1 34  1  0
  2  3  1  0
  2  4  1  0
  2  6  1  0
  3 35  1  0
  4  5  1  0
  4 36  1  0
  4 37  1  0
  5  6  1  0
  5  7  1  0
  6 38  1  0
  6 39  1  0
  7  8  2  0
  7 31  1  0
  8  9  1  0
  8 40  1  0
  9 10  2  0
  9 41  1  0
 10 11  1  0
 10 30  1  0
 11 12  1  0
 11 42  1  0
 12 13  2  0
 12 20  1  0
 13 14  1  0
 14 15  2  0
 14 21  1  0
 15 16  1  0
 15 43  1  0
 16 17  1  0
 16 20  1  0
 17 18  2  0
 17 44  1  0
 18 19  1  0
 18 45  1  0
 19 20  2  0
 21 22  2  0
 21 29  1  0
 22 23  1  0
 22 46  1  0
 23 24  2  0
 23 47  1  0
 24 25  1  0
 24 28  1  0
 25 26  2  0
 25 48  1  0
 26 27  1  0
 27 28  1  0
 27 49  1  0
 28 29  2  0
 29 50  1  0
 30 31  2  0
 30 51  1  0
 31 52  1  0
M  END
>  <IC50[nM]>  (29) 
3.8999999999999999

>  <atom.dprop.PartialCharge>  (29) 
-0.11840188 0.11423643 -0.5774932 0.1799709 -0.69174576 0.1799709 0.108619794 -0.13007376 -0.11072672 0.10862993 -0.69534355 0.6103176 -0.6208124 0.15635675 -0.116911605 -0.0649503 -0.2886296 0.3276401 -0.6247748 0.2664139 -0.041779585 -0.13219519 -0.05923125 -0.20936653 0.3498345 -0.4037323 -0.3990672 0.08074344 -0.11757983 -0.11072672 -0.13007376 0.049682204 0.049682204 0.049682204 0.41348785 0.060493607 0.060493607 0.060493607 0.060493607 0.13685614 0.1388301 0.44310415 0.17684093 0.18137984 0.05115997 0.1373198 0.13897666 0.056564003 0.47597283 0.14368196 0.1388301 0.13685614

>  <experimental dG reference units>  (29) 
nM

>  <experimental dG reference field>  (29) 
IC50[nM]

>  <kJ/mol experimental dG>  (29) 
-48.296391401771174

>  <kcal/mol experimental dG>  (29) 
-11.543114579773224

>  <AmberAM1BCCCache>  (29) 
gASVNwQAAAAAAABdlCiMFm51bXB5Ll9jb3JlLm11bHRpYXJyYXmUjAZzY2FsYXKUk5SMBW51bXB5lIwFZHR5cGWUk5SMAmY4lImIh5RSlChLA4wBPJROTk5K/////0r/////SwB0lGJDCHSAGGoEtfW/lIaUUpRoA2gJQwj1x6dik1T0P5SGlFKUaANoCUMIZUaCTT5iG8CUhpRSlGgDaAlDCLsdFxSnHvs/lIaUUpRoA2gJQwiXA7UskQEcwJSGlFKUaANoCUMIux0XFKce+z+UhpRSlGgDaAlDCLBhfLH/XfY/lIaUUpRoA2gJQwh1JbRuqmv9v5SGlFKUaANoCUMIEiAJjdRs87+UhpRSlGgDaAlDCBbm7EMpFvE/lIaUUpRoA2gJQwjLmqtqaJQgwJSGlFKUaANoCUMIGmQo2uilIECUhpRSlGgDaAlDCHWu44+3UyHAlIaUUpRoA2gJQwj4WI5GW2UVQJSGlFKUaANoCUMItD9SqbEVBcCUhpRSlGgDaAlDCKObxe0Xdd8/lIaUUpRoA2gJQwgrVgVJXTAEwJSGlFKUaANoCUMIZIpYR7z3nL+UhpRSlGgDaAlDCFYjOpxfNwbAlIaUUpRoA2gJQwh2rC6GQb8AwJSGlFKUaANoCUMIKidPEGkk87+UhpRSlGgDaAlDCIDBuLZtMve/lIaUUpRoA2gJQwivgSNZoAbqv5SGlFKUaANoCUMIUdKX20ZSA8CUhpRSlGgDaAlDCLvSFRQmihBAlIaUUpRoA2gJQwjPSpcsCSUYwJSGlFKUaANoCUMI1H4SVa/Myb+UhpRSlGgDaAlDCGQoWv8Edue/lIaUUpRoA2gJQwism5j6qrT4v5SGlFKUaANoCUMIEiAJjdRs87+UhpRSlGgDaAlDCHUltG6qa/2/lIaUUpRoA2gJQwhVweBXvT/jP5SGlFKUaANoCUMIVcHgV70/4z+UhpRSlGgDaAlDCFXB4Fe9P+M/lIaUUpRoA2gJQwhHXl5caSQTQJSGlFKUaANoCUMIe84Jganp6T+UhpRSlGgDaAlDCHvOCYGp6ek/lIaUUpRoA2gJQwh7zgmBqenpP5SGlFKUaANoCUMIe84Jganp6T+UhpRSlGgDaAlDCC14eOrtjfk/lIaUUpRoA2gJQwhbbK4PoQb6P5SGlFKUaANoCUMI+nLkJ9FbFECUhpRSlGgDaAlDCLPezDR+gABAlIaUUpRoA2gJQwixxHZTCIoBQJSGlFKUaANoCUMIDsc4f+RxAUCUhpRSlGgDaAlDCOIu+p1Eevw/lIaUUpRoA2gJQwhwWZ6xv8f6P5SGlFKUaANoCUMIrXvxUgoM5T+UhpRSlGgDaAlDCF8wln+0lA1AlIaUUpRoA2gJQwhwWZ6xv8f6P5SGlFKUaANoCUMIW2yuD6EG+j+UhpRSlGgDaAlDCC14eOrtjfk/lIaUUpRlLg==

$$$$
CHEMBL3265022
     RDKit          3D

 50 54  0  0  0  0  0  0  0  0999 V2000
   -4.2567   -3.1047   13.5688 C   0  0  0  0  0  0  0  0  0  0  0  0
   -3.8734   -2.3604   14.7149 O   0  0  0  0  0  0  0  0  0  0  0  0
   -2.5253   -2.1111   14.8171 C   0  0  0  0  0  0  0  0  0  0  0  0
   -1.7475   -2.8730   15.6782 C   0  0  0  0  0  0  0  0  0  0  0  0
   -0.3907   -2.6182   15.8081 C   0  0  0  0  0  0  0  0  0  0  0  0
    0.2216   -1.5894   15.0857 C   0  0  0  0  0  0  0  0  0  0  0  0
    1.6073   -1.3712   15.3149 N   0  0  0  0  0  0  0  0  0  0  0  0
    2.5355   -0.4471   14.7615 C   0  0  0  0  0  0  0  0  0  0  0  0
    2.1757    0.3798   13.7323 N   0  0  0  0  0  0  0  0  0  0  0  0
    3.1108    1.2385   13.2179 C   0  0  0  0  0  0  0  0  0  0  0  0
    4.4177    1.2796   13.6973 C   0  0  0  0  0  0  0  0  0  0  0  0
    4.7459    0.4877   14.7580 N   0  0  0  0  0  0  0  0  0  0  0  0
    5.8989    0.3777   15.4842 C   0  0  0  0  0  0  0  0  0  0  0  0
    5.5905   -0.5278   16.5266 C   0  0  0  0  0  0  0  0  0  0  0  0
    4.3783   -1.0442   16.3710 N   0  0  0  0  0  0  0  0  0  0  0  0
    3.8361   -0.3924   15.3256 C   0  0  0  0  0  0  0  0  0  0  0  0
    2.6345    2.1599   12.1209 C   0  0  0  0  0  0  0  0  0  0  0  0
    3.5455    2.6449   11.1653 C   0  0  0  0  0  0  0  0  0  0  0  0
    3.1472    3.4641   10.1113 C   0  0  0  0  0  0  0  0  0  0  0  0
    1.8026    3.8166   10.0162 C   0  0  0  0  0  0  0  0  0  0  0  0
    0.9964    4.5969    9.1149 C   0  0  0  0  0  0  0  0  0  0  0  0
   -0.2457    4.6110    9.5049 N   0  0  0  0  0  0  0  0  0  0  0  0
   -0.3357    3.9010   10.6180 N   0  0  0  0  0  0  0  0  0  0  0  0
   -1.6267    3.7825   11.2689 C   0  0  0  0  0  0  0  0  0  0  0  0
    0.8830    3.3583   10.9929 C   0  0  0  0  0  0  0  0  0  0  0  0
    1.2696    2.5335   12.0602 C   0  0  0  0  0  0  0  0  0  0  0  0
   -0.5547   -0.8145   14.1988 C   0  0  0  0  0  0  0  0  0  0  0  0
   -1.9437   -1.0858   14.0662 C   0  0  0  0  0  0  0  0  0  0  0  0
   -2.7514   -0.3534   13.2139 O   0  0  0  0  0  0  0  0  0  0  0  0
   -2.2220    0.6070   12.3331 C   0  0  0  0  0  0  0  0  0  0  0  0
   -5.3359   -3.2534   13.5870 H   0  0  0  0  0  0  0  0  0  0  0  0
   -3.7874   -4.0892   13.5581 H   0  0  0  0  0  0  0  0  0  0  0  0
   -4.0127   -2.5809   12.6432 H   0  0  0  0  0  0  0  0  0  0  0  0
   -2.1986   -3.6652   16.2573 H   0  0  0  0  0  0  0  0  0  0  0  0
    0.1975   -3.2194   16.4879 H   0  0  0  0  0  0  0  0  0  0  0  0
    2.0047   -1.9732   16.0205 H   0  0  0  0  0  0  0  0  0  0  0  0
    5.1816    1.9533   13.3327 H   0  0  0  0  0  0  0  0  0  0  0  0
    6.7844    0.9544   15.2754 H   0  0  0  0  0  0  0  0  0  0  0  0
    6.2308   -0.8005   17.3497 H   0  0  0  0  0  0  0  0  0  0  0  0
    4.5872    2.3567   11.2306 H   0  0  0  0  0  0  0  0  0  0  0  0
    3.8598    3.8084    9.3838 H   0  0  0  0  0  0  0  0  0  0  0  0
    1.3099    5.1193    8.2308 H   0  0  0  0  0  0  0  0  0  0  0  0
   -1.5635    4.1826   12.2778 H   0  0  0  0  0  0  0  0  0  0  0  0
   -1.8990    2.7466   11.2882 H   0  0  0  0  0  0  0  0  0  0  0  0
   -2.4088    4.3136   10.7194 H   0  0  0  0  0  0  0  0  0  0  0  0
    0.5682    2.1998   12.8003 H   0  0  0  0  0  0  0  0  0  0  0  0
   -0.1091   -0.0207   13.6374 H   0  0  0  0  0  0  0  0  0  0  0  0
   -3.0436    1.0382   11.7546 H   0  0  0  0  0  0  0  0  0  0  0  0
   -1.5161    0.1773   11.6242 H   0  0  0  0  0  0  0  0  0  0  0  0
   -1.7468    1.4118   12.8931 H   0  0  0  0  0  0  0  0  0  0  0  0
  1  2  1  0
  1 31  1  0
  1 32  1  0
  1 33  1  0
  2  3  1  0
  3  4  2  0
  3 28  1  0
  4  5  1  0
  4 34  1  0
  5  6  2  0
  5 35  1  0
  6  7  1  0
  6 27  1  0
  7  8  1  0
  7 36  1  0
  8  9  2  0
  8 16  1  0
  9 10  1  0
 10 11  2  0
 10 17  1  0
 11 12  1  0
 11 37  1  0
 12 13  1  0
 12 16  1  0
 13 14  2  0
 13 38  1  0
 14 15  1  0
 14 39  1  0
 15 16  2  0
 17 18  2  0
 17 26  1  0
 18 19  1  0
 18 40  1  0
 19 20  2  0
 19 41  1  0
 20 21  1  0
 20 25  1  0
 21 22  2  0
 21 42  1  0
 22 23  1  0
 23 24  1  0
 23 25  1  0
 24 43  1  0
 24 44  1  0
 24 45  1  0
 25 26  2  0
 26 46  1  0
 27 28  2  0
 27 47  1  0
 28 29  1  0
 29 30  1  0
 30 48  1  0
 30 49  1  0
 30 50  1  0
M  END
>  <IC50[nM]>  (30) 
12.300000000000001

>  <atom.dprop.PartialCharge>  (30) 
0.11230518 -0.3247118 0.084105775 -0.14496525 -0.11643778 0.12772512 -0.6972603 0.6143807 -0.62074757 0.1535306 -0.116779834 -0.06503086 -0.28871015 0.32755956 -0.6248554 0.26719746 -0.037483618 -0.13463421 -0.059637398 -0.21131589 0.346982 -0.39331812 -0.3238635 0.22526477 0.09188113 -0.124396995 -0.123992845 0.082552165 -0.33123752 0.117474385 0.044930715 0.044930715 0.044930715 0.1438392 0.14419821 0.44124198 0.17676038 0.18129928 0.051079422 0.13689427 0.13781267 0.051930387 0.05648711 0.05648711 0.05648711 0.14333877 0.1493597 0.042137444 0.042137444 0.042137444

>  <experimental dG reference units>  (30) 
nM

>  <experimental dG reference field>  (30) 
IC50[nM]

>  <kJ/mol experimental dG>  (30) 
-45.431320483481834

>  <kcal/mol experimental dG>  (30) 
-10.85834619586086

>  <AmberAM1BCCCache>  (30) 
gASVEQQAAAAAAABdlCiMFm51bXB5Ll9jb3JlLm11bHRpYXJyYXmUjAZzY2FsYXKUk5SMBW51bXB5lIwFZHR5cGWUk5SMAmY4lImIh5RSlChLA4wBPJROTk5K/////0r/////SwB0lGJDCJf3ZASo3vQ/lIaUUpRoA2gJQwglf45L9ZAMwJSGlFKUaANoCUMIB6MfAsUd8j+UhpRSlGgDaAlDCCQyE8JGj/6/lIaUUpRoA2gJQwgWrXul/6f5v5SGlFKUaANoCUMIEw5hPZYO+D+UhpRSlGgDaAlDCL5+2SC4oCDAlIaUUpRoA2gJQwi/AOsukJMgQJSGlFKUaANoCUMIIpeVnb8vIcCUhpRSlGgDaAlDCFiMroIDfRVAlIaUUpRoA2gJQwiY1k8Fhf4EwJSGlFKUaANoCUMIQnLshj4X4D+UhpRSlGgDaAlDCLLqQHlUMQTAlIaUUpRoA2gJQwi6zSJlVHOdv5SGlFKUaANoCUMIxbAvScKABsCUhpRSlGgDaAlDCFpDLOIUqADAlIaUUpRoA2gJQwjCRr7B5obzv5SGlFKUaANoCUMIXtyjEDPF97+UhpRSlGgDaAlDCLTmIXheSem/lIaUUpRoA2gJQwh7ZBHgYWsDwJSGlFKUaANoCUMIjw8+/z5BEECUhpRSlGgDaAlDCHAkIuGbiBfAlIaUUpRoA2gJQwjxZbG5Y+DuP5SGlFKUaANoCUMIzf00z4Gx4j+UhpRSlGgDaAlDCBLZmJZItOO/lIaUUpRoA2gJQwgAwIsD4eb4v5SGlFKUaANoCUMIJmyjIUwSAcCUhpRSlGgDaAlDCC5JU4MWs/U/lIaUUpRoA2gJQwhregr0PMEMwJSGlFKUaANoCUMIUfzoW2Cu9D+UhpRSlGgDaAlDCM1o5NfNd+A/lIaUUpRoA2gJQwjNaOTXzXfgP5SGlFKUaANoCUMIzWjk18134D+UhpRSlGgDaAlDCBw1q6iJlfo/lIaUUpRoA2gJQwiTPrNX+jT6P5SGlFKUaANoCUMIWqYEZHlzFECUhpRSlGgDaAlDCIlMUzBjZwBAlIaUUpRoA2gJQwgqMDsjEYkBQJSGlFKUaANoCUMIhzL9Tu1wAUCUhpRSlGgDaAlDCI4KB5UOSPw/lIaUUpRoA2gJQwhiMCdR0cX6P5SGlFKUaANoCUMIHSD74rxo5T+UhpRSlGgDaAlDCGZJ0todvuQ/lIaUUpRoA2gJQwhmSdLaHb7kP5SGlFKUaANoCUMIZknS2h2+5D+UhpRSlGgDaAlDCJM+s1f6NPo/lIaUUpRoA2gJQwhJD4vsxhf8P5SGlFKUaANoCUMIV1/cKF3Y4D+UhpRSlGgDaAlDCFdf3Chd2OA/lIaUUpRoA2gJQwhXX9woXdjgP5SGlFKUZS4=

$$$$
CHEMBL3265019
     RDKit          3D

 46 50  0  0  0  0  0  0  0  0999 V2000
   -4.2567   -3.1043   13.5693 C   0  0  0  0  0  0  0  0  0  0  0  0
   -3.8736   -2.3605   14.7157 O   0  0  0  0  0  0  0  0  0  0  0  0
   -2.5257   -2.1110   14.8169 C   0  0  0  0  0  0  0  0  0  0  0  0
   -1.7458   -2.8699   15.6818 C   0  0  0  0  0  0  0  0  0  0  0  0
   -0.3904   -2.6103   15.8137 C   0  0  0  0  0  0  0  0  0  0  0  0
    0.2206   -1.5847   15.0868 C   0  0  0  0  0  0  0  0  0  0  0  0
    1.6037   -1.3593   15.3213 N   0  0  0  0  0  0  0  0  0  0  0  0
    2.5361   -0.4486   14.7616 C   0  0  0  0  0  0  0  0  0  0  0  0
    2.1814    0.3735   13.7239 N   0  0  0  0  0  0  0  0  0  0  0  0
    3.1138    1.2388   13.2174 C   0  0  0  0  0  0  0  0  0  0  0  0
    4.4183    1.2844   13.7022 C   0  0  0  0  0  0  0  0  0  0  0  0
    4.7470    0.4870   14.7610 N   0  0  0  0  0  0  0  0  0  0  0  0
    5.8980    0.3781   15.4861 C   0  0  0  0  0  0  0  0  0  0  0  0
    5.5879   -0.5236   16.5289 C   0  0  0  0  0  0  0  0  0  0  0  0
    4.3760   -1.0435   16.3736 N   0  0  0  0  0  0  0  0  0  0  0  0
    3.8368   -0.3913   15.3236 C   0  0  0  0  0  0  0  0  0  0  0  0
    2.6373    2.1616   12.1208 C   0  0  0  0  0  0  0  0  0  0  0  0
    1.3117    2.6428   12.1323 C   0  0  0  0  0  0  0  0  0  0  0  0
    0.8392    3.5282   11.1613 C   0  0  0  0  0  0  0  0  0  0  0  0
    1.7204    3.9285   10.1646 C   0  0  0  0  0  0  0  0  0  0  0  0
    1.5424    4.7860    9.1151 N   0  0  0  0  0  0  0  0  0  0  0  0
    2.7143    4.8525    8.3999 N   0  0  0  0  0  0  0  0  0  0  0  0
    3.5904    4.0382    9.0000 N   0  0  0  0  0  0  0  0  0  0  0  0
    3.0324    3.4382   10.1221 C   0  0  0  0  0  0  0  0  0  0  0  0
    3.5249    2.5426   11.0797 C   0  0  0  0  0  0  0  0  0  0  0  0
   -0.5551   -0.8189   14.1919 C   0  0  0  0  0  0  0  0  0  0  0  0
   -1.9443   -1.0883   14.0612 C   0  0  0  0  0  0  0  0  0  0  0  0
   -2.7530   -0.3558   13.2052 O   0  0  0  0  0  0  0  0  0  0  0  0
   -2.2324    0.6450   12.3520 C   0  0  0  0  0  0  0  0  0  0  0  0
   -5.3358   -3.2523   13.5866 H   0  0  0  0  0  0  0  0  0  0  0  0
   -3.7890   -4.0896   13.5590 H   0  0  0  0  0  0  0  0  0  0  0  0
   -4.0124   -2.5807   12.6437 H   0  0  0  0  0  0  0  0  0  0  0  0
   -2.1941   -3.6622   16.2628 H   0  0  0  0  0  0  0  0  0  0  0  0
    0.1988   -3.2066   16.4982 H   0  0  0  0  0  0  0  0  0  0  0  0
    1.9911   -1.9346   16.0533 H   0  0  0  0  0  0  0  0  0  0  0  0
    5.1807    1.9631   13.3423 H   0  0  0  0  0  0  0  0  0  0  0  0
    6.7854    0.9491   15.2761 H   0  0  0  0  0  0  0  0  0  0  0  0
    6.2290   -0.7940   17.3521 H   0  0  0  0  0  0  0  0  0  0  0  0
    0.6437    2.3379   12.9285 H   0  0  0  0  0  0  0  0  0  0  0  0
   -0.1664    3.8943   11.1902 H   0  0  0  0  0  0  0  0  0  0  0  0
    4.5235    3.9296    8.6264 H   0  0  0  0  0  0  0  0  0  0  0  0
    4.5235    2.1590   11.0319 H   0  0  0  0  0  0  0  0  0  0  0  0
   -0.1083   -0.0321   13.6247 H   0  0  0  0  0  0  0  0  0  0  0  0
   -3.0506    1.0729   11.7701 H   0  0  0  0  0  0  0  0  0  0  0  0
   -1.5096    0.2343   11.6496 H   0  0  0  0  0  0  0  0  0  0  0  0
   -1.7818    1.4502   12.9278 H   0  0  0  0  0  0  0  0  0  0  0  0
  1  2  1  0
  1 30  1  0
  1 31  1  0
  1 32  1  0
  2  3  1  0
  3  4  2  0
  3 27  1  0
  4  5  1  0
  4 33  1  0
  5  6  2  0
  5 34  1  0
  6  7  1  0
  6 26  1  0
  7  8  1  0
  7 35  1  0
  8  9  2  0
  8 16  1  0
  9 10  1  0
 10 11  2  0
 10 17  1  0
 11 12  1  0
 11 36  1  0
 12 13  1  0
 12 16  1  0
 13 14  2  0
 13 37  1  0
 14 15  1  0
 14 38  1  0
 15 16  2  0
 17 18  2  0
 17 25  1  0
 18 19  1  0
 18 39  1  0
 19 20  2  0
 19 40  1  0
 20 21  1  0
 20 24  1  0
 21 22  2  0
 22 23  1  0
 23 24  1  0
 23 41  1  0
 24 25  2  0
 25 42  1  0
 26 27  2  0
 26 43  1  0
 27 28  1  0
 28 29  1  0
 29 44  1  0
 29 45  1  0
 29 46  1  0
M  END
>  <IC50[nM]>  (31) 
12.6

>  <atom.dprop.PartialCharge>  (31) 
0.11286618 -0.3241507 0.084666766 -0.1444042 -0.11587675 0.1282861 -0.6966991 0.6149417 -0.62101316 0.16270784 -0.118105754 -0.06446983 -0.2881491 0.32812047 -0.62429416 0.26775846 -0.042955622 -0.12268327 -0.04829884 0.012416083 -0.20877513 -0.043922447 -0.42975035 0.063759685 -0.10674639 -0.1234318 0.083113156 -0.33067644 0.11803538 0.045491736 0.045491736 0.045491736 0.14440022 0.14475925 0.44180304 0.17732143 0.18186033 0.051640444 0.13976458 0.1539935 0.4819889 0.14570831 0.14992075 0.042698465 0.042698465 0.042698465

>  <experimental dG reference units>  (31) 
nM

>  <experimental dG reference field>  (31) 
IC50[nM]

>  <kJ/mol experimental dG>  (31) 
-45.37121267464645

>  <kcal/mol experimental dG>  (31) 
-10.843980084762535

>  <AmberAM1BCCCache>  (31) 
gASVxQMAAAAAAABdlCiMFm51bXB5Ll9jb3JlLm11bHRpYXJyYXmUjAZzY2FsYXKUk5SMBW51bXB5lIwFZHR5cGWUk5SMAmY4lImIh5RSlChLA4wBPJROTk5K/////0r/////SwB0lGJDCK77gqU6bfU/lIaUUpRoA2gJQwiKOAUGuwUPwJSGlFKUaANoCUMIHkRMDSGK6z+UhpRSlGgDaAlDCCIb5cLSwf6/lIaUUpRoA2gJQwiM0wEY6Gb3v5SGlFKUaANoCUMIo08zUIUp9j+UhpRSlGgDaAlDCEY7A5YSrSDAlIaUUpRoA2gJQwjkvkxXhr0gQJSGlFKUaANoCUMI5NHt8TROIcCUhpRSlGgDaAlDCHUUPK48WBVAlIaUUpRoA2gJQwjSzzxdg+cEwJSGlFKUaANoCUMIiUCRCk1k3z+UhpRSlGgDaAlDCKXosSgL6gPAlIaUUpRoA2gJQwgCPJ56agSev5SGlFKUaANoCUMIoadadeSBBsCUhpRSlGgDaAlDCNk3leJawQDAlIaUUpRoA2gJQwiVVbB+NTfyv5SGlFKUaANoCUMIduYRdsml9r+UhpRSlGgDaAlDCOxiVshi5OK/lIaUUpRoA2gJQwgSjA/OOaHLP5SGlFKUaANoCUMInEkNxJAhBMCUhpRSlGgDaAlDCPQWZJAtzPi/lIaUUpRoA2gJQwhSB111cJbov5SGlFKUaANoCUMI6u2b65Kk67+UhpRSlGgDaAlDCBfK+Wh3x/e/lIaUUpRoA2gJQwiM0wEY6Gb3v5SGlFKUaANoCUMIeY+p7b2d8z+UhpRSlGgDaAlDCM8zga4CNg/AlIaUUpRoA2gJQwgg0d6Rvx/3P5SGlFKUaANoCUMIhsx2APzz4D+UhpRSlGgDaAlDCIbMdgD88+A/lIaUUpRoA2gJQwiGzHYA/PPgP5SGlFKUaANoCUMIIEzZp/1i+j+UhpRSlGgDaAlDCCBM2af9Yvo/lIaUUpRoA2gJQwgDJYrgQa8UQJSGlFKUaANoCUMIUFNm2GR+AECUhpRSlGgDaAlDCPE2TssSoAFAlIaUUpRoA2gJQwhOORD37ocBQJSGlFKUaANoCUMIvfsU2L+X/T+UhpRSlGgDaAlDCAL3kIAHyP0/lIaUUpRoA2gJQwjMfE07/CwPQJSGlFKUaANoCUMINTnJSRwk+z+UhpRSlGgDaAlDCI3tiNGWKP4/lIaUUpRoA2gJQwhweijJYzThP5SGlFKUaANoCUMIcHooyWM04T+UhpRSlGgDaAlDCHB6KMljNOE/lIaUUpRlLg==

$$$$
CHEMBL3265025
     RDKit          3D

 50 54  0  0  0  0  0  0  0  0999 V2000
   -4.2554   -3.1070   13.5667 C   0  0  0  0  0  0  0  0  0  0  0  0
   -3.8739   -2.3555   14.7096 O   0  0  0  0  0  0  0  0  0  0  0  0
   -2.5267   -2.1066   14.8132 C   0  0  0  0  0  0  0  0  0  0  0  0
   -1.7520   -2.8715   15.6749 C   0  0  0  0  0  0  0  0  0  0  0  0
   -0.3933   -2.6145   15.8117 C   0  0  0  0  0  0  0  0  0  0  0  0
    0.2196   -1.5878   15.0897 C   0  0  0  0  0  0  0  0  0  0  0  0
    1.6042   -1.3666   15.3298 N   0  0  0  0  0  0  0  0  0  0  0  0
    2.5249   -0.4338   14.7828 C   0  0  0  0  0  0  0  0  0  0  0  0
    2.1518    0.4044   13.7691 N   0  0  0  0  0  0  0  0  0  0  0  0
    3.0983    1.2388   13.2332 C   0  0  0  0  0  0  0  0  0  0  0  0
    4.4000    1.2764   13.7009 C   0  0  0  0  0  0  0  0  0  0  0  0
    4.7368    0.4928   14.7596 N   0  0  0  0  0  0  0  0  0  0  0  0
    5.8926    0.3911   15.4808 C   0  0  0  0  0  0  0  0  0  0  0  0
    5.6027   -0.5483   16.5053 C   0  0  0  0  0  0  0  0  0  0  0  0
    4.3885   -1.0602   16.3544 N   0  0  0  0  0  0  0  0  0  0  0  0
    3.8325   -0.3883   15.3309 C   0  0  0  0  0  0  0  0  0  0  0  0
    2.6407    2.1399   12.1271 C   0  0  0  0  0  0  0  0  0  0  0  0
    3.5584    2.6399   11.1674 C   0  0  0  0  0  0  0  0  0  0  0  0
    3.1117    3.4654   10.1220 C   0  0  0  0  0  0  0  0  0  0  0  0
    1.7626    3.8038   10.0403 C   0  0  0  0  0  0  0  0  0  0  0  0
    1.2975    4.6116    9.0072 N   0  0  0  0  0  0  0  0  0  0  0  0
   -0.0065    4.8513    8.7182 C   0  0  0  0  0  0  0  0  0  0  0  0
   -0.4123    5.6311    7.8553 O   0  0  0  0  0  0  0  0  0  0  0  0
   -0.9274    3.9668    9.6249 C   0  0  0  0  0  0  0  0  0  0  0  0
   -0.4391    3.7019   10.9584 O   0  0  0  0  0  0  0  0  0  0  0  0
    0.8806    3.3365   10.9991 C   0  0  0  0  0  0  0  0  0  0  0  0
    1.2955    2.5129   12.0280 C   0  0  0  0  0  0  0  0  0  0  0  0
   -0.5548   -0.8136   14.1938 C   0  0  0  0  0  0  0  0  0  0  0  0
   -1.9407   -1.0774   14.0650 C   0  0  0  0  0  0  0  0  0  0  0  0
   -2.7433   -0.3209   13.2263 O   0  0  0  0  0  0  0  0  0  0  0  0
   -2.1991    0.3702   12.1141 C   0  0  0  0  0  0  0  0  0  0  0  0
   -5.3362   -3.2511   13.5814 H   0  0  0  0  0  0  0  0  0  0  0  0
   -3.7862   -4.0919   13.5584 H   0  0  0  0  0  0  0  0  0  0  0  0
   -4.0024   -2.5902   12.6400 H   0  0  0  0  0  0  0  0  0  0  0  0
   -2.2087   -3.6617   16.2534 H   0  0  0  0  0  0  0  0  0  0  0  0
    0.1948   -3.2083   16.4987 H   0  0  0  0  0  0  0  0  0  0  0  0
    1.9997   -1.9671   16.0417 H   0  0  0  0  0  0  0  0  0  0  0  0
    5.1597    1.9397   13.3158 H   0  0  0  0  0  0  0  0  0  0  0  0
    6.7704    0.9889   15.2738 H   0  0  0  0  0  0  0  0  0  0  0  0
    6.2524   -0.8465   17.3109 H   0  0  0  0  0  0  0  0  0  0  0  0
    4.6017    2.3682   11.2211 H   0  0  0  0  0  0  0  0  0  0  0  0
    3.8116    3.8283    9.3793 H   0  0  0  0  0  0  0  0  0  0  0  0
    1.9664    5.0550    8.3957 H   0  0  0  0  0  0  0  0  0  0  0  0
   -1.0255    3.0007    9.1213 H   0  0  0  0  0  0  0  0  0  0  0  0
   -1.9053    4.4356    9.6360 H   0  0  0  0  0  0  0  0  0  0  0  0
    0.5824    2.1742   12.7618 H   0  0  0  0  0  0  0  0  0  0  0  0
   -0.1140   -0.0195   13.6280 H   0  0  0  0  0  0  0  0  0  0  0  0
   -3.0255    0.8261   11.5653 H   0  0  0  0  0  0  0  0  0  0  0  0
   -1.6971   -0.3166   11.4335 H   0  0  0  0  0  0  0  0  0  0  0  0
   -1.5230    1.1664   12.4132 H   0  0  0  0  0  0  0  0  0  0  0  0
  1  2  1  0
  1 32  1  0
  1 33  1  0
  1 34  1  0
  2  3  1  0
  3  4  2  0
  3 29  1  0
  4  5  1  0
  4 35  1  0
  5  6  2  0
  5 36  1  0
  6  7  1  0
  6 28  1  0
  7  8  1  0
  7 37  1  0
  8  9  2  0
  8 16  1  0
  9 10  1  0
 10 11  2  0
 10 17  1  0
 11 12  1  0
 11 38  1  0
 12 13  1  0
 12 16  1  0
 13 14  2  0
 13 39  1  0
 14 15  1  0
 14 40  1  0
 15 16  2  0
 17 18  2  0
 17 27  1  0
 18 19  1  0
 18 41  1  0
 19 20  2  0
 19 42  1  0
 20 21  1  0
 20 26  1  0
 21 22  1  0
 21 43  1  0
 22 23  2  0
 22 24  1  0
 24 25  1  0
 24 44  1  0
 24 45  1  0
 25 26  1  0
 26 27  2  0
 27 46  1  0
 28 29  2  0
 28 47  1  0
 29 30  1  0
 30 31  1  0
 31 48  1  0
 31 49  1  0
 31 50  1  0
M  END
>  <IC50[nM]>  (32) 
33.399999999999999

>  <atom.dprop.PartialCharge>  (32) 
0.1128051 -0.3242118 0.084605694 -0.14446528 -0.11593784 0.12822503 -0.69664425 0.6139438 -0.61795694 0.16277021 -0.11782496 -0.06522271 -0.28831312 0.3280594 -0.62435526 0.26784548 -0.061444376 -0.105642535 -0.14682183 0.020593764 -0.46845865 0.68375075 -0.6068906 0.05975888 -0.30705765 0.07067368 -0.09940292 -0.12349288 0.08305208 -0.33073753 0.1179743 0.045430657 0.045430657 0.045430657 0.14433914 0.14469817 0.44174194 0.17711066 0.18179925 0.051579364 0.14595355 0.13726807 0.34055877 0.09064512 0.09064512 0.15041986 0.14985967 0.042637378 0.042637378 0.042637378

>  <experimental dG reference units>  (32) 
nM

>  <experimental dG reference field>  (32) 
IC50[nM]

>  <kJ/mol experimental dG>  (32) 
-42.93956963439845

>  <kcal/mol experimental dG>  (32) 
-10.262803449904027

>  <AmberAM1BCCCache>  (32) 
gASVEQQAAAAAAABdlCiMFm51bXB5Ll9jb3JlLm11bHRpYXJyYXmUjAZzY2FsYXKUk5SMBW51bXB5lIwFZHR5cGWUk5SMAmY4lImIh5RSlChLA4wBPJROTk5K/////0r/////SwB0lGJDCD0OccKAQPU/lIaUUpRoA2gJQwiJRGCB1UIOwJSGlFKUaANoCUMIuyBACfgU7j+UhpRSlGgDaAlDCHUQ0zcVnv6/lIaUUpRoA2gJQwiArNd/2GT4v5SGlFKUaANoCUMIZ0c1fWEO9z+UhpRSlGgDaAlDCL55++CdqiDAlIaUUpRoA2gJQwgzAiYt4K0gQJSGlFKUaANoCUMIxI/1MclRIcCUhpRSlGgDaAlDCHaOjnCvuRVAlIaUUpRoA2gJQwgeyPFryO0EwJSGlFKUaANoCUMIebIUYdEZ4D+UhpRSlGgDaAlDCF/fOhpoAATAlIaUUpRoA2gJQwiI/gxFdZaiv5SGlFKUaANoCUMI7Z8PhCmIBsCUhpRSlGgDaAlDCCYwSvGfxwDAlIaUUpRoA2gJQwhufBkGsU/6v5SGlFKUaANoCUMIATWZaYPN7b+UhpRSlGgDaAlDCGguF2JPbP2/lIaUUpRoA2gJQwi26ZvCg9LWP5SGlFKUaANoCUMIbEPeV/r5FcCUhpRSlGgDaAlDCHXdJhcc2R9AlIaUUpRoA2gJQwiBM24W0LwcwJSGlFKUaANoCUMIB2j+l3wn5z+UhpRSlGgDaAlDCKhW2tDCiQ3AlIaUUpRoA2gJQwi52oh79anmP5SGlFKUaANoCUMI/B04tCDe87+UhpRSlGgDaAlDCP9j70EjSfu/lIaUUpRoA2gJQwjQiNc3gnL0P5SGlFKUaANoCUMImEByOBFrDsCUhpRSlGgDaAlDCHLzhNIWUvY/lIaUUpRoA2gJQwhBEHQVeMXgP5SGlFKUaANoCUMIQRB0FXjF4D+UhpRSlGgDaAlDCEEQdBV4xeA/lIaUUpRoA2gJQwhgWBdQo3b6P5SGlFKUaANoCUMI9FlDbYtm+j+UhpRSlGgDaAlDCASsh5PvixRAlIaUUpRoA2gJQwg5Whu7K4AAQJSGlFKUaANoCUMI2j0DrtmhAUCUhpRSlGgDaAlDCMxB8fadeQFAlIaUUpRoA2gJQwi3DNfXHXv9P5SGlFKUaANoCUMIL0qLSXoH+z+UhpRSlGgDaAlDCKdqeM6YARBAlIaUUpRoA2gJQwixdJ0qcCrxP5SGlFKUaANoCUMIsXSdKnAq8T+UhpRSlGgDaAlDCJgUs2mmKv0/lIaUUpRoA2gJQwhLDgP1BWv9P5SGlFKUaANoCUMIQZlUjk8b4T+UhpRSlGgDaAlDCEGZVI5PG+E/lIaUUpRoA2gJQwhBmVSOTxvhP5SGlFKUZS4=

$$$$
CHEMBL3265021
     RDKit          3D

 47 51  0  0  0  0  0  0  0  0999 V2000
   -4.2567   -3.1041   13.5694 C   0  0  0  0  0  0  0  0  0  0  0  0
   -3.8737   -2.3599   14.7156 O   0  0  0  0  0  0  0  0  0  0  0  0
   -2.5258   -2.1107   14.8171 C   0  0  0  0  0  0  0  0  0  0  0  0
   -1.7454   -2.8698   15.6820 C   0  0  0  0  0  0  0  0  0  0  0  0
   -0.3904   -2.6103   15.8138 C   0  0  0  0  0  0  0  0  0  0  0  0
    0.2204   -1.5845   15.0865 C   0  0  0  0  0  0  0  0  0  0  0  0
    1.6042   -1.3599   15.3206 N   0  0  0  0  0  0  0  0  0  0  0  0
    2.5373   -0.4464   14.7592 C   0  0  0  0  0  0  0  0  0  0  0  0
    2.1833    0.3714   13.7220 N   0  0  0  0  0  0  0  0  0  0  0  0
    3.1157    1.2390   13.2179 C   0  0  0  0  0  0  0  0  0  0  0  0
    4.4197    1.2848   13.7036 C   0  0  0  0  0  0  0  0  0  0  0  0
    4.7466    0.4890   14.7613 N   0  0  0  0  0  0  0  0  0  0  0  0
    5.8976    0.3767   15.4867 C   0  0  0  0  0  0  0  0  0  0  0  0
    5.5868   -0.5220   16.5302 C   0  0  0  0  0  0  0  0  0  0  0  0
    4.3755   -1.0422   16.3738 N   0  0  0  0  0  0  0  0  0  0  0  0
    3.8369   -0.3923   15.3263 C   0  0  0  0  0  0  0  0  0  0  0  0
    2.6420    2.1628   12.1182 C   0  0  0  0  0  0  0  0  0  0  0  0
    3.5476    2.6405   11.1603 C   0  0  0  0  0  0  0  0  0  0  0  0
    3.1538    3.4680   10.0985 C   0  0  0  0  0  0  0  0  0  0  0  0
    1.8053    3.8044   10.0318 C   0  0  0  0  0  0  0  0  0  0  0  0
    1.0883    4.5643    9.1320 N   0  0  0  0  0  0  0  0  0  0  0  0
   -0.2025    4.6328    9.4561 N   0  0  0  0  0  0  0  0  0  0  0  0
   -0.3779    3.9489   10.5598 C   0  0  0  0  0  0  0  0  0  0  0  0
    0.8670    3.3654   10.9941 C   0  0  0  0  0  0  0  0  0  0  0  0
    1.2880    2.5471   12.0527 C   0  0  0  0  0  0  0  0  0  0  0  0
   -0.5552   -0.8189   14.1923 C   0  0  0  0  0  0  0  0  0  0  0  0
   -1.9451   -1.0886   14.0616 C   0  0  0  0  0  0  0  0  0  0  0  0
   -2.7540   -0.3570   13.2047 O   0  0  0  0  0  0  0  0  0  0  0  0
   -2.2335    0.6444   12.3522 C   0  0  0  0  0  0  0  0  0  0  0  0
   -5.3357   -3.2522   13.5867 H   0  0  0  0  0  0  0  0  0  0  0  0
   -3.7893   -4.0896   13.5592 H   0  0  0  0  0  0  0  0  0  0  0  0
   -4.0126   -2.5804   12.6439 H   0  0  0  0  0  0  0  0  0  0  0  0
   -2.1927   -3.6625   16.2629 H   0  0  0  0  0  0  0  0  0  0  0  0
    0.1988   -3.2074   16.4977 H   0  0  0  0  0  0  0  0  0  0  0  0
    1.9904   -1.9330   16.0525 H   0  0  0  0  0  0  0  0  0  0  0  0
    5.1817    1.9635   13.3434 H   0  0  0  0  0  0  0  0  0  0  0  0
    6.7861    0.9464   15.2759 H   0  0  0  0  0  0  0  0  0  0  0  0
    6.2273   -0.7901   17.3528 H   0  0  0  0  0  0  0  0  0  0  0  0
    4.5880    2.3444   11.2252 H   0  0  0  0  0  0  0  0  0  0  0  0
    3.8539    3.8134    9.3727 H   0  0  0  0  0  0  0  0  0  0  0  0
    1.4372    5.0378    8.3060 H   0  0  0  0  0  0  0  0  0  0  0  0
   -1.3472    3.8635   11.0272 H   0  0  0  0  0  0  0  0  0  0  0  0
    0.5928    2.2220   12.7999 H   0  0  0  0  0  0  0  0  0  0  0  0
   -0.1077   -0.0333   13.6254 H   0  0  0  0  0  0  0  0  0  0  0  0
   -3.0510    1.0731   11.7700 H   0  0  0  0  0  0  0  0  0  0  0  0
   -1.5105    0.2345   11.6498 H   0  0  0  0  0  0  0  0  0  0  0  0
   -1.7824    1.4497   12.9275 H   0  0  0  0  0  0  0  0  0  0  0  0
  1  2  1  0
  1 30  1  0
  1 31  1  0
  1 32  1  0
  2  3  1  0
  3  4  2  0
  3 27  1  0
  4  5  1  0
  4 33  1  0
  5  6  2  0
  5 34  1  0
  6  7  1  0
  6 26  1  0
  7  8  1  0
  7 35  1  0
  8  9  2  0
  8 16  1  0
  9 10  1  0
 10 11  2  0
 10 17  1  0
 11 12  1  0
 11 36  1  0
 12 13  1  0
 12 16  1  0
 13 14  2  0
 13 37  1  0
 14 15  1  0
 14 38  1  0
 15 16  2  0
 17 18  2  0
 17 25  1  0
 18 19  1  0
 18 39  1  0
 19 20  2  0
 19 40  1  0
 20 21  1  0
 20 24  1  0
 21 22  1  0
 21 41  1  0
 22 23  2  0
 23 24  1  0
 23 42  1  0
 24 25  2  0
 25 43  1  0
 26 27  2  0
 26 44  1  0
 27 28  1  0
 28 29  1  0
 29 45  1  0
 29 46  1  0
 29 47  1  0
M  END
>  <IC50[nM]>  (33) 
10.4

>  <atom.dprop.PartialCharge>  (33) 
0.11149347 -0.3255236 0.08329408 -0.14577702 -0.117249504 0.12691346 -0.6980724 0.6151495 -0.6233981 0.16830862 -0.123756945 -0.06416712 -0.28952196 0.32674795 -0.62566745 0.26638573 -0.091462724 -0.0794047 -0.13620125 0.075942926 -0.39234793 -0.40730715 0.35109544 -0.21128565 -0.02521171 -0.124804616 0.08174047 -0.33204934 0.11666268 0.04411898 0.04411898 0.04411898 0.14302742 0.14338644 0.44043025 0.17639314 0.18048751 0.05026768 0.13707142 0.14370993 0.47482336 0.05622713 0.13876826 0.14854793 0.04132571 0.04132571 0.04132571

>  <experimental dG reference units>  (33) 
nM

>  <experimental dG reference field>  (33) 
IC50[nM]

>  <kJ/mol experimental dG>  (33) 
-45.84985665541922

>  <kcal/mol experimental dG>  (33) 
-10.958378741734993

>  <AmberAM1BCCCache>  (33) 
gASV2AMAAAAAAABdlCiMFm51bXB5Ll9jb3JlLm11bHRpYXJyYXmUjAZzY2FsYXKUk5SMBW51bXB5lIwFZHR5cGWUk5SMAmY4lImIh5RSlChLA4wBPJROTk5K/////0r/////SwB0lGJDCDERdOVlcPU/lIaUUpRoA2gJQwhsq0o6SRwPwJSGlFKUaANoCUMIDYI+61jP6j+UhpRSlGgDaAlDCFsKeNpfjv6/lIaUUpRoA2gJQwhPuYyABJT3v5SGlFKUaANoCUMIbGCgOPhc9j+UhpRSlGgDaAlDCC2Z9TikpiDAlIaUUpRoA2gJQwiJZP31vp8gQJSGlFKUaANoCUMINK/vic9NIcCUhpRSlGgDaAlDCKZLrHfe6RVAlIaUUpRoA2gJQwiENPaK6I4FwJSGlFKUaANoCUMI664S+Cra4D+UhpRSlGgDaAlDCCpZNTG9GATAlIaUUpRoA2gJQwgEPytet66qv5SGlFKUaANoCUMIJRjefZawBsCUhpRSlGgDaAlDCLuq2hbp1wDAlIaUUpRoA2gJQwhZ8CH56Zf/v5SGlFKUaANoCUMIU9kjcqWj5r+UhpRSlGgDaAlDCI1MsKN06vu/lIaUUpRoA2gJQwgJ43WZpBjfv5SGlFKUaANoCUMI+9KYWS1x0b+UhpRSlGgDaAlDCNpPUmID9RfAlIaUUpRoA2gJQwjH1KBhwHEQQJSGlFKUaANoCUMIH63l2wfVBMCUhpRSlGgDaAlDCOY3dEgM3uK/lIaUUpRoA2gJQwiUtAgpTMT3v5SGlFKUaANoCUMI/KSaLemg8z+UhpRSlGgDaAlDCLCmxuKQTA/AlIaUUpRoA2gJQwij5s/R6iL3P5SGlFKUaANoCUMIS2bMbwO64D+UhpRSlGgDaAlDCEtmzG8DuuA/lIaUUpRoA2gJQwhLZsxvA7rgP5SGlFKUaANoCUMIomHK5yhm+j+UhpRSlGgDaAlDCOZcRpBwlvo/lIaUUpRoA2gJQwjvbSny1osUQJSGlFKUaANoCUMIEd5eePp/AECUhpRSlGgDaAlDCLLBRmuooQFAlIaUUpRoA2gJQwjKyIzuPFkBQJSGlFKUaANoCUMI4yiazYSp/D+UhpRSlGgDaAlDCHFTPuH/9vo/lIaUUpRoA2gJQwgZGJQNl4UOQJSGlFKUaANoCUMIJnk5YfsJ5T+UhpRSlGgDaAlDCKJhyucoZvo/lIaUUpRoA2gJQwjKB/5oevv9P5SGlFKUaANoCUMIdqUKSbo64T+UhpRSlGgDaAlDCHalCkm6OuE/lIaUUpRoA2gJQwh2pQpJujrhP5SGlFKUZS4=

$$$$
CHEMBL3265006
     RDKit          3D

 51 54  0  0  0  0  0  0  0  0999 V2000
   -2.4212    4.6361   12.3150 C   0  0  0  0  0  0  0  0  0  0  0  0
   -1.0554    4.1831   12.0682 N   0  0  0  0  0  0  0  0  0  0  0  0
   -0.5783    3.7648   10.8955 C   0  0  0  0  0  0  0  0  0  0  0  0
   -1.2609    3.7178    9.8765 O   0  0  0  0  0  0  0  0  0  0  0  0
    0.8660    3.3707   10.9895 C   0  0  0  0  0  0  0  0  0  0  0  0
    1.7879    3.8078   10.0318 C   0  0  0  0  0  0  0  0  0  0  0  0
    3.1294    3.4499   10.1277 C   0  0  0  0  0  0  0  0  0  0  0  0
    3.5566    2.6280   11.1666 C   0  0  0  0  0  0  0  0  0  0  0  0
    2.6564    2.1560   12.1340 C   0  0  0  0  0  0  0  0  0  0  0  0
    1.3140    2.5576   12.0419 C   0  0  0  0  0  0  0  0  0  0  0  0
    3.1227    1.2406   13.2181 C   0  0  0  0  0  0  0  0  0  0  0  0
    4.4207    1.3039   13.7175 C   0  0  0  0  0  0  0  0  0  0  0  0
    4.7482    0.4921   14.7654 N   0  0  0  0  0  0  0  0  0  0  0  0
    5.8898    0.3836   15.5035 C   0  0  0  0  0  0  0  0  0  0  0  0
    5.5715   -0.5089   16.5177 C   0  0  0  0  0  0  0  0  0  0  0  0
    4.3818   -1.0543   16.3920 N   0  0  0  0  0  0  0  0  0  0  0  0
    3.8330   -0.4170   15.3252 C   0  0  0  0  0  0  0  0  0  0  0  0
    2.5452   -0.4689   14.7536 C   0  0  0  0  0  0  0  0  0  0  0  0
    1.5930   -1.3491   15.3060 N   0  0  0  0  0  0  0  0  0  0  0  0
    0.2220   -1.5829   15.0890 C   0  0  0  0  0  0  0  0  0  0  0  0
   -0.3863   -2.6106   15.8150 C   0  0  0  0  0  0  0  0  0  0  0  0
   -1.7497   -2.8673   15.6804 C   0  0  0  0  0  0  0  0  0  0  0  0
   -2.5261   -2.1057   14.8053 C   0  0  0  0  0  0  0  0  0  0  0  0
   -3.8740   -2.3535   14.7166 O   0  0  0  0  0  0  0  0  0  0  0  0
   -4.2555   -3.1029   13.5707 C   0  0  0  0  0  0  0  0  0  0  0  0
   -1.9389   -1.0760   14.0580 C   0  0  0  0  0  0  0  0  0  0  0  0
   -2.6991   -0.3052   13.2022 O   0  0  0  0  0  0  0  0  0  0  0  0
   -2.0020    0.6747   12.5251 C   0  0  0  0  0  0  0  0  0  0  0  0
   -0.5664   -0.8256   14.2115 C   0  0  0  0  0  0  0  0  0  0  0  0
    2.2178    0.3551   13.7190 N   0  0  0  0  0  0  0  0  0  0  0  0
   -2.5270    4.9174   13.3627 H   0  0  0  0  0  0  0  0  0  0  0  0
   -3.1185    3.8312   12.0826 H   0  0  0  0  0  0  0  0  0  0  0  0
   -2.6378    5.4979   11.6837 H   0  0  0  0  0  0  0  0  0  0  0  0
   -0.5302    4.2377   12.9293 H   0  0  0  0  0  0  0  0  0  0  0  0
    1.4564    4.4350    9.2166 H   0  0  0  0  0  0  0  0  0  0  0  0
    3.8342    3.7939    9.3845 H   0  0  0  0  0  0  0  0  0  0  0  0
    4.5934    2.3309   11.2002 H   0  0  0  0  0  0  0  0  0  0  0  0
    0.6053    2.2130   12.7810 H   0  0  0  0  0  0  0  0  0  0  0  0
    5.1701    2.0030   13.3719 H   0  0  0  0  0  0  0  0  0  0  0  0
    6.7656    0.9739   15.2897 H   0  0  0  0  0  0  0  0  0  0  0  0
    6.2089   -0.8330   17.3301 H   0  0  0  0  0  0  0  0  0  0  0  0
    2.0245   -1.8853   16.0480 H   0  0  0  0  0  0  0  0  0  0  0  0
    0.1911   -3.2101   16.5029 H   0  0  0  0  0  0  0  0  0  0  0  0
   -2.2100   -3.6528   16.2607 H   0  0  0  0  0  0  0  0  0  0  0  0
   -4.0223   -2.5652   12.6508 H   0  0  0  0  0  0  0  0  0  0  0  0
   -5.3298   -3.2850   13.5913 H   0  0  0  0  0  0  0  0  0  0  0  0
   -3.7492   -4.0689   13.5480 H   0  0  0  0  0  0  0  0  0  0  0  0
   -2.6852    1.2258   11.8788 H   0  0  0  0  0  0  0  0  0  0  0  0
   -1.2219    0.2131   11.9198 H   0  0  0  0  0  0  0  0  0  0  0  0
   -1.5484    1.3591   13.2420 H   0  0  0  0  0  0  0  0  0  0  0  0
   -0.1547   -0.0168   13.6337 H   0  0  0  0  0  0  0  0  0  0  0  0
  1  2  1  0
  1 31  1  0
  1 32  1  0
  1 33  1  0
  2  3  1  0
  2 34  1  0
  3  4  2  0
  3  5  1  0
  5  6  2  0
  5 10  1  0
  6  7  1  0
  6 35  1  0
  7  8  2  0
  7 36  1  0
  8  9  1  0
  8 37  1  0
  9 10  2  0
  9 11  1  0
 10 38  1  0
 11 12  2  0
 11 30  1  0
 12 13  1  0
 12 39  1  0
 13 14  1  0
 13 17  1  0
 14 15  2  0
 14 40  1  0
 15 16  1  0
 15 41  1  0
 16 17  2  0
 17 18  1  0
 18 19  1  0
 18 30  2  0
 19 20  1  0
 19 42  1  0
 20 21  2  0
 20 29  1  0
 21 22  1  0
 21 43  1  0
 22 23  2  0
 22 44  1  0
 23 24  1  0
 23 26  1  0
 24 25  1  0
 25 45  1  0
 25 46  1  0
 25 47  1  0
 26 27  1  0
 26 29  2  0
 27 28  1  0
 28 48  1  0
 28 49  1  0
 28 50  1  0
 29 51  1  0
M  END
>  <IC50[nM]>  (34) 
50.200000000000003

>  <atom.dprop.PartialCharge>  (34) 
0.081855536 -0.5758668 0.67312646 -0.59325755 -0.14137569 -0.09499931 -0.14197417 -0.08040634 -0.07855876 -0.067592226 0.16822731 -0.1199754 -0.06364471 -0.2886431 0.32772952 -0.62468535 0.26751554 0.61484826 -0.69697434 0.1278951 -0.116267785 -0.14479524 0.08427576 -0.32454178 0.11247517 0.08272214 -0.3310675 0.11764437 -0.12382284 -0.61874485 0.0450299 0.0450299 0.0450299 0.3086487 0.14138621 0.14020243 0.14038011 0.15152684 0.1773821 0.18146929 0.051249415 0.441412 0.1443682 0.14400919 0.04510071 0.04510071 0.04510071 0.042307436 0.042307436 0.042307436 0.1495297

>  <experimental dG reference units>  (34) 
nM

>  <experimental dG reference field>  (34) 
IC50[nM]

>  <kJ/mol experimental dG>  (34) 
-41.923222591153575

>  <kcal/mol experimental dG>  (34) 
-10.019890676661944

>  <AmberAM1BCCCache>  (34) 
gASVJAQAAAAAAABdlCiMFm51bXB5Ll9jb3JlLm11bHRpYXJyYXmUjAZzY2FsYXKUk5SMBW51bXB5lIwFZHR5cGWUk5SMAmY4lImIh5RSlChLA4wBPJROTk5K/////0r/////SwB0lGJDCH811w7Puu0/lIaUUpRoA2gJQwgf47VgsAgbwJSGlFKUaANoCUMI/sPHQJulH0CUhpRSlGgDaAlDCK6IVIppmRzAlIaUUpRoA2gJQwiqrVRFMCz7v5SGlFKUaANoCUMIafCPM1hi8r+UhpRSlGgDaAlDCIgUFU5cJ/u/lIaUUpRoA2gJQwi01vAtIvbqv5SGlFKUaANoCUMIXCDfKKmu+r+UhpRSlGgDaAlDCLTW8C0i9uq/lIaUUpRoA2gJQwhXrvQLa0cVQJSGlFKUaANoCUMIPrcCmYrzA8CUhpRSlGgDaAlDCCPoIpWj9t0/lIaUUpRoA2gJQwhWvkgcH6sDwJSGlFKUaANoCUMI9bYGhDiylr+UhpRSlGgDaAlDCJd4bRFAcwbAlIaUUpRoA2gJQwgtC2qqkpoAwJSGlFKUaANoCUMIFc9TQuyTIECUhpRSlGgDaAlDCOxuF3JyryDAlIaUUpRoA2gJQwhVXUlIkHv5P5SGlFKUaANoCUMILiypA/Y1+r+UhpRSlGgDaAlDCI1IwRBIFPm/lIaUUpRoA2gJQwii6GznGLbsP5SGlFKUaANoCUMIxRE/O5miDsCUhpRSlGgDaAlDCPJn6XOs+fQ/lIaUUpRoA2gJQwil9Mk4m3LzP5SGlFKUaANoCUMIIhQBZ3WKDsCUhpRSlGgDaAlDCE9qq5+I4fQ/lIaUUpRoA2gJQwhTuIaj0dT+v5SGlFKUaANoCUMInMdLdHU7IcCUhpRSlGgDaAlDCGmNr+dF/uA/lIaUUpRoA2gJQwhpja/nRf7gP5SGlFKUaANoCUMIaY2v50X+4D+UhpRSlGgDaAlDCP5BIxMAVA1AlIaUUpRoA2gJQwgdvcPNJ7/5P5SGlFKUaANoCUMI7q43x/5P+j+UhpRSlGgDaAlDCLps//3p8/w/lIaUUpRoA2gJQwguXLHL5Jz9P5SGlFKUaANoCUMIE3oso4bhAECUhpRSlGgDaAlDCJ1jeQPbxgFAlIaUUpRoA2gJQwi1ar+Gb34BQJSGlFKUaANoCUMI2UH1dEOAFECUhpRSlGgDaAlDCDSqs29GgPo/lIaUUpRoA2gJQwiOkh+6rHH7P5SGlFKUaANoCUMIeSBGmwrO4D+UhpRSlGgDaAlDCHkgRpsKzuA/lIaUUpRoA2gJQwh5IEabCs7gP5SGlFKUaANoCUMIDkDlB2YO4T+UhpRSlGgDaAlDCA5A5QdmDuE/lIaUUpRoA2gJQwgOQOUHZg7hP5SGlFKUaANoCUMIdXGDVaLD/D+UhpRSlGUu

$$$$
CHEMBL3265017
     RDKit          3D

 47 51  0  0  0  0  0  0  0  0999 V2000
   -4.2568   -3.1045   13.5692 C   0  0  0  0  0  0  0  0  0  0  0  0
   -3.8735   -2.3609   14.7157 O   0  0  0  0  0  0  0  0  0  0  0  0
   -2.5254   -2.1112   14.8167 C   0  0  0  0  0  0  0  0  0  0  0  0
   -1.7461   -2.8700   15.6816 C   0  0  0  0  0  0  0  0  0  0  0  0
   -0.3903   -2.6103   15.8137 C   0  0  0  0  0  0  0  0  0  0  0  0
    0.2206   -1.5848   15.0868 C   0  0  0  0  0  0  0  0  0  0  0  0
    1.6038   -1.3598   15.3228 N   0  0  0  0  0  0  0  0  0  0  0  0
    2.5359   -0.4458   14.7609 C   0  0  0  0  0  0  0  0  0  0  0  0
    2.1794    0.3745   13.7258 N   0  0  0  0  0  0  0  0  0  0  0  0
    3.1126    1.2387   13.2174 C   0  0  0  0  0  0  0  0  0  0  0  0
    4.4180    1.2838   13.7013 C   0  0  0  0  0  0  0  0  0  0  0  0
    4.7460    0.4885   14.7593 N   0  0  0  0  0  0  0  0  0  0  0  0
    5.8978    0.3783   15.4862 C   0  0  0  0  0  0  0  0  0  0  0  0
    5.5892   -0.5252   16.5282 C   0  0  0  0  0  0  0  0  0  0  0  0
    4.3768   -1.0429   16.3726 N   0  0  0  0  0  0  0  0  0  0  0  0
    3.8366   -0.3928   15.3256 C   0  0  0  0  0  0  0  0  0  0  0  0
    2.6368    2.1616   12.1201 C   0  0  0  0  0  0  0  0  0  0  0  0
    3.5454    2.6408   11.1618 C   0  0  0  0  0  0  0  0  0  0  0  0
    3.1453    3.4625   10.1097 C   0  0  0  0  0  0  0  0  0  0  0  0
    1.7994    3.8163   10.0176 C   0  0  0  0  0  0  0  0  0  0  0  0
    0.9914    4.5941    9.1197 C   0  0  0  0  0  0  0  0  0  0  0  0
   -0.2494    4.6053    9.5133 N   0  0  0  0  0  0  0  0  0  0  0  0
   -0.3372    3.8935   10.6271 N   0  0  0  0  0  0  0  0  0  0  0  0
    0.8851    3.3607   10.9950 C   0  0  0  0  0  0  0  0  0  0  0  0
    1.2726    2.5413   12.0626 C   0  0  0  0  0  0  0  0  0  0  0  0
   -0.5549   -0.8187   14.1915 C   0  0  0  0  0  0  0  0  0  0  0  0
   -1.9439   -1.0882   14.0610 C   0  0  0  0  0  0  0  0  0  0  0  0
   -2.7521   -0.3548   13.2056 O   0  0  0  0  0  0  0  0  0  0  0  0
   -2.2313    0.6456   12.3518 C   0  0  0  0  0  0  0  0  0  0  0  0
   -5.3359   -3.2524   13.5865 H   0  0  0  0  0  0  0  0  0  0  0  0
   -3.7887   -4.0896   13.5588 H   0  0  0  0  0  0  0  0  0  0  0  0
   -4.0122   -2.5810   12.6435 H   0  0  0  0  0  0  0  0  0  0  0  0
   -2.1953   -3.6619   16.2627 H   0  0  0  0  0  0  0  0  0  0  0  0
    0.1988   -3.2059   16.4986 H   0  0  0  0  0  0  0  0  0  0  0  0
    1.9915   -1.9358   16.0538 H   0  0  0  0  0  0  0  0  0  0  0  0
    5.1799    1.9624   13.3414 H   0  0  0  0  0  0  0  0  0  0  0  0
    6.7849    0.9516   15.2761 H   0  0  0  0  0  0  0  0  0  0  0  0
    6.2311   -0.7975   17.3512 H   0  0  0  0  0  0  0  0  0  0  0  0
    4.5870    2.3473   11.2231 H   0  0  0  0  0  0  0  0  0  0  0  0
    3.8550    3.8058    9.3820 H   0  0  0  0  0  0  0  0  0  0  0  0
    1.3018    5.1155    8.2351 H   0  0  0  0  0  0  0  0  0  0  0  0
   -1.2265    3.7931   11.0919 H   0  0  0  0  0  0  0  0  0  0  0  0
    0.5730    2.2156   12.8045 H   0  0  0  0  0  0  0  0  0  0  0  0
   -0.1088   -0.0311   13.6242 H   0  0  0  0  0  0  0  0  0  0  0  0
   -3.0501    1.0729   11.7701 H   0  0  0  0  0  0  0  0  0  0  0  0
   -1.5087    0.2343   11.6493 H   0  0  0  0  0  0  0  0  0  0  0  0
   -1.7811    1.4509   12.9278 H   0  0  0  0  0  0  0  0  0  0  0  0
  1  2  1  0
  1 30  1  0
  1 31  1  0
  1 32  1  0
  2  3  1  0
  3  4  2  0
  3 27  1  0
  4  5  1  0
  4 33  1  0
  5  6  2  0
  5 34  1  0
  6  7  1  0
  6 26  1  0
  7  8  1  0
  7 35  1  0
  8  9  2  0
  8 16  1  0
  9 10  1  0
 10 11  2  0
 10 17  1  0
 11 12  1  0
 11 36  1  0
 12 13  1  0
 12 16  1  0
 13 14  2  0
 13 37  1  0
 14 15  1  0
 14 38  1  0
 15 16  2  0
 17 18  2  0
 17 25  1  0
 18 19  1  0
 18 39  1  0
 19 20  2  0
 19 40  1  0
 20 21  1  0
 20 24  1  0
 21 22  2  0
 21 41  1  0
 22 23  1  0
 23 24  1  0
 23 42  1  0
 24 25  2  0
 25 43  1  0
 26 27  2  0
 26 44  1  0
 27 28  1  0
 28 29  1  0
 29 45  1  0
 29 46  1  0
 29 47  1  0
M  END
>  <IC50[nM]>  (35) 
3.7999999999999998

>  <atom.dprop.PartialCharge>  (35) 
0.11225006 -0.32476693 0.084050655 -0.14502037 -0.1164929 0.12767 -0.69731545 0.6143256 -0.6208431 0.15622109 -0.11704728 -0.06508598 -0.28876528 0.32750443 -0.62491053 0.26714233 -0.041915253 -0.13233086 -0.059366915 -0.2095022 0.34969887 -0.40386802 -0.39920288 0.08060779 -0.11771551 -0.124047965 0.082497045 -0.33129263 0.11741926 0.044875596 0.044875596 0.044875596 0.14378406 0.14414309 0.44118688 0.17670526 0.18124416 0.051024295 0.13718411 0.13884099 0.056428336 0.47583717 0.14354628 0.14930458 0.042082317 0.042082317 0.042082317

>  <experimental dG reference units>  (35) 
nM

>  <experimental dG reference field>  (35) 
IC50[nM]

>  <kJ/mol experimental dG>  (35) 
-48.36118344365189

>  <kcal/mol experimental dG>  (35) 
-11.558600249438788

>  <AmberAM1BCCCache>  (35) 
gASV2AMAAAAAAABdlCiMFm51bXB5Ll9jb3JlLm11bHRpYXJyYXmUjAZzY2FsYXKUk5SMBW51bXB5lIwFZHR5cGWUk5SMAmY4lImIh5RSlChLA4wBPJROTk5K/////0r/////SwB0lGJDCG72FRKr4/Q/lIaUUpRoA2gJQwi5/7XEc44MwJSGlFKUaANoCUMI3qHQD8gi8j+UhpRSlGgDaAlDCE0zYrRDiv6/lIaUUpRoA2gJQwg/rsqX/KL5v5SGlFKUaANoCUMIpRGWolHj9z+UhpRSlGgDaAlDCONeI78XoCDAlIaUUpRoA2gJQwiZIKGQMJQgQJSGlFKUaANoCUMIsPbuMCg1IcCUhpRSlGgDaAlDCJrPvYcOWhVAlIaUUpRoA2gJQwhFXr0BmLMEwJSGlFKUaANoCUMIyvKsomqB3z+UhpRSlGgDaAlDCABw7EmL/gPAlIaUUpRoA2gJQwj1F+P4kDKcv5SGlFKUaANoCUMItjMZ7hxmBsCUhpRSlGgDaAlDCO/DU1uTpQDAlIaUUpRoA2gJQwjrRw2044Hzv5SGlFKUaANoCUMIt+t+CVkv97+UhpRSlGgDaAlDCBzWr/52AOq/lIaUUpRoA2gJQwhs5/qEvFADwJSGlFKUaANoCUMILkhkP+uKEECUhpRSlGgDaAlDCIvWKRcyGBjAlIaUUpRoA2gJQwiG0EPrCbTJv5SGlFKUaANoCUMI0XzmpNtv57+UhpRSlGgDaAlDCOPFXk2Wsfi/lIaUUpRoA2gJQwi77Mqayg8BwJSGlFKUaANoCUMIBkgEkRm49T+UhpRSlGgDaAlDCP/6MW27vgzAlIaUUpRoA2gJQwgp+5lpY7P0P5SGlFKUaANoCUMIe2ZG89OB4D+UhpRSlGgDaAlDCHtmRvPTgeA/lIaUUpRoA2gJQwh7Zkbz04HgP5SGlFKUaANoCUMI9DNctoya+j+UhpRSlGgDaAlDCGo9ZGX9Ofo/lIaUUpRoA2gJQwgQ5nAnunQUQJSGlFKUaANoCUMIOsenXyyaAECUhpRSlGgDaAlDCDmtUX62owFAlIaUUpRoA2gJQwjzsdXVbnMBQJSGlFKUaANoCUMIqwQ0S1l9/D+UhpRSlGgDaAlDCH8qVAcc+/o/lIaUUpRoA2gJQwjLHV3+wnLlP5SGlFKUaANoCUMI6BhxqmKuDUCUhpRSlGgDaAlDCPQzXLaMmvo/lIaUUpRoA2gJQwggDjz6yRz8P5SGlFKUaANoCUMIBl0+RGPi4D+UhpRSlGgDaAlDCAZdPkRj4uA/lIaUUpRoA2gJQwgGXT5EY+LgP5SGlFKUZS4=

$$$$
CHEMBL3265009
     RDKit          3D

 51 54  0  0  0  0  0  0  0  0999 V2000
   -4.2555   -3.1029   13.5707 C   0  0  0  0  0  0  0  0  0  0  0  0
   -3.8740   -2.3535   14.7166 O   0  0  0  0  0  0  0  0  0  0  0  0
   -2.5261   -2.1057   14.8053 C   0  0  0  0  0  0  0  0  0  0  0  0
   -1.7497   -2.8673   15.6804 C   0  0  0  0  0  0  0  0  0  0  0  0
   -0.3863   -2.6106   15.8150 C   0  0  0  0  0  0  0  0  0  0  0  0
    0.2220   -1.5829   15.0890 C   0  0  0  0  0  0  0  0  0  0  0  0
    1.5930   -1.3491   15.3060 N   0  0  0  0  0  0  0  0  0  0  0  0
    2.5452   -0.4689   14.7536 C   0  0  0  0  0  0  0  0  0  0  0  0
    2.2178    0.3551   13.7190 N   0  0  0  0  0  0  0  0  0  0  0  0
    3.1227    1.2406   13.2181 C   0  0  0  0  0  0  0  0  0  0  0  0
    4.4207    1.3039   13.7175 C   0  0  0  0  0  0  0  0  0  0  0  0
    4.7482    0.4921   14.7654 N   0  0  0  0  0  0  0  0  0  0  0  0
    5.8898    0.3836   15.5035 C   0  0  0  0  0  0  0  0  0  0  0  0
    5.5715   -0.5089   16.5177 C   0  0  0  0  0  0  0  0  0  0  0  0
    4.3818   -1.0543   16.3920 N   0  0  0  0  0  0  0  0  0  0  0  0
    3.8330   -0.4170   15.3252 C   0  0  0  0  0  0  0  0  0  0  0  0
    2.6564    2.1560   12.1340 C   0  0  0  0  0  0  0  0  0  0  0  0
    3.5566    2.6280   11.1666 C   0  0  0  0  0  0  0  0  0  0  0  0
    3.1294    3.4499   10.1277 C   0  0  0  0  0  0  0  0  0  0  0  0
    1.7879    3.8078   10.0318 C   0  0  0  0  0  0  0  0  0  0  0  0
    1.3278    4.6785    8.9004 C   0  0  0  0  0  0  0  0  0  0  0  0
    0.8660    3.3707   10.9895 C   0  0  0  0  0  0  0  0  0  0  0  0
    1.3140    2.5576   12.0419 C   0  0  0  0  0  0  0  0  0  0  0  0
   -0.5782    3.7649   10.8956 C   0  0  0  0  0  0  0  0  0  0  0  0
   -1.4474    3.1358   10.2993 O   0  0  0  0  0  0  0  0  0  0  0  0
   -0.8250    4.9023   11.5462 N   0  0  0  0  0  0  0  0  0  0  0  0
   -0.5664   -0.8256   14.2115 C   0  0  0  0  0  0  0  0  0  0  0  0
   -1.9389   -1.0760   14.0580 C   0  0  0  0  0  0  0  0  0  0  0  0
   -2.6991   -0.3051   13.2023 O   0  0  0  0  0  0  0  0  0  0  0  0
   -2.0021    0.6747   12.5252 C   0  0  0  0  0  0  0  0  0  0  0  0
   -3.7566   -4.0728   13.5537 H   0  0  0  0  0  0  0  0  0  0  0  0
   -4.0132   -2.5700   12.6504 H   0  0  0  0  0  0  0  0  0  0  0  0
   -5.3313   -3.2764   13.5862 H   0  0  0  0  0  0  0  0  0  0  0  0
   -2.2100   -3.6528   16.2607 H   0  0  0  0  0  0  0  0  0  0  0  0
    0.1911   -3.2101   16.5029 H   0  0  0  0  0  0  0  0  0  0  0  0
    2.0245   -1.8852   16.0481 H   0  0  0  0  0  0  0  0  0  0  0  0
    5.1701    2.0029   13.3719 H   0  0  0  0  0  0  0  0  0  0  0  0
    6.7656    0.9739   15.2896 H   0  0  0  0  0  0  0  0  0  0  0  0
    6.2090   -0.8330   17.3300 H   0  0  0  0  0  0  0  0  0  0  0  0
    4.5935    2.3310   11.2004 H   0  0  0  0  0  0  0  0  0  0  0  0
    3.8342    3.7938    9.3845 H   0  0  0  0  0  0  0  0  0  0  0  0
    0.2554    4.8524    8.9886 H   0  0  0  0  0  0  0  0  0  0  0  0
    1.5389    4.1839    7.9522 H   0  0  0  0  0  0  0  0  0  0  0  0
    1.8548    5.6319    8.9381 H   0  0  0  0  0  0  0  0  0  0  0  0
    0.6052    2.2126   12.7809 H   0  0  0  0  0  0  0  0  0  0  0  0
   -1.7254    5.3545   11.6162 H   0  0  0  0  0  0  0  0  0  0  0  0
   -0.1417    5.4508   12.0485 H   0  0  0  0  0  0  0  0  0  0  0  0
   -0.1546   -0.0169   13.6336 H   0  0  0  0  0  0  0  0  0  0  0  0
   -2.6852    1.2258   11.8789 H   0  0  0  0  0  0  0  0  0  0  0  0
   -1.2220    0.2132   11.9198 H   0  0  0  0  0  0  0  0  0  0  0  0
   -1.5484    1.3591   13.2421 H   0  0  0  0  0  0  0  0  0  0  0  0
  1  2  1  0
  1 31  1  0
  1 32  1  0
  1 33  1  0
  2  3  1  0
  3  4  2  0
  3 28  1  0
  4  5  1  0
  4 34  1  0
  5  6  2  0
  5 35  1  0
  6  7  1  0
  6 27  1  0
  7  8  1  0
  7 36  1  0
  8  9  2  0
  8 16  1  0
  9 10  1  0
 10 11  2  0
 10 17  1  0
 11 12  1  0
 11 37  1  0
 12 13  1  0
 12 16  1  0
 13 14  2  0
 13 38  1  0
 14 15  1  0
 14 39  1  0
 15 16  2  0
 17 18  2  0
 17 23  1  0
 18 19  1  0
 18 40  1  0
 19 20  2  0
 19 41  1  0
 20 21  1  0
 20 22  1  0
 21 42  1  0
 21 43  1  0
 21 44  1  0
 22 23  2  0
 22 24  1  0
 23 45  1  0
 24 25  2  0
 24 26  1  0
 26 46  1  0
 26 47  1  0
 27 28  2  0
 27 48  1  0
 28 29  1  0
 29 30  1  0
 30 49  1  0
 30 50  1  0
 30 51  1  0
M  END
>  <IC50[nM]>  (36) 
28.300000000000001

>  <atom.dprop.PartialCharge>  (36) 
0.111942425 -0.3250746 0.08374303 -0.14532803 -0.11680053 0.1273624 -0.69750726 0.6143155 -0.61885566 0.16858822 -0.118811816 -0.06417747 -0.2891759 0.32719684 -0.6252183 0.26698282 -0.083595306 -0.08160692 -0.14008701 -0.024710208 -0.05983411 -0.14712314 -0.062160484 0.6814495 -0.59305394 -0.68322605 -0.12435562 0.08218942 -0.3316003 0.11711164 0.044567954 0.044567954 0.044567954 0.14347641 0.14383543 0.44087923 0.17684932 0.18093652 0.050716653 0.13864522 0.13897027 0.050855134 0.050855134 0.050855134 0.14962423 0.31344903 0.31344903 0.14899692 0.041774675 0.041774675 0.041774675

>  <experimental dG reference units>  (36) 
nM

>  <experimental dG reference field>  (36) 
IC50[nM]

>  <kJ/mol experimental dG>  (36) 
-43.352869258419574

>  <kcal/mol experimental dG>  (36) 
-10.361584430788616

>  <AmberAM1BCCCache>  (36) 
gASVJAQAAAAAAABdlCiMFm51bXB5Ll9jb3JlLm11bHRpYXJyYXmUjAZzY2FsYXKUk5SMBW51bXB5lIwFZHR5cGWUk5SMAmY4lImIh5RSlChLA4wBPJROTk5K/////0r/////SwB0lGJDCO+ODWaW4PQ/lIaUUpRoA2gJQwh5M7oa/o8MwJSGlFKUaANoCUMIGT9Mu2vv8T+UhpRSlGgDaAlDCMyaamBYjf6/lIaUUpRoA2gJQwgDEU/sWNb5v5SGlFKUaANoCUMIsaCFR8xA+D+UhpRSlGgDaAlDCDzrs0mDpiDAlIaUUpRoA2gJQwh7Ej/l358gQJSGlFKUaANoCUMIQgGumq5NIcCUhpRSlGgDaAlDCNCvVu+ilRVAlIaUUpRoA2gJQwhhlIOD/pwEwJSGlFKUaANoCUMIzlSL8hd13z+UhpRSlGgDaAlDCB2mssvx5wPAlIaUUpRoA2gJQwiz9/z6u/ecv5SGlFKUaANoCUMIdmcdRKdnBsCUhpRSlGgDaAlDCK73V7EdpwDAlIaUUpRoA2gJQwiL7fBbckD7v5SGlFKUaANoCUMIppu4py9n6r+UhpRSlGgDaAlDCC7rLjCWWPu/lIaUUpRoA2gJQwg9nE7st2bev5SGlFKUaANoCUMIa2biNRNx6L+UhpRSlGgDaAlDCNyUvFlvtPq/lIaUUpRoA2gJQwjQdZjrbOnrv5SGlFKUaANoCUMIvc1QvVWfH0CUhpRSlGgDaAlDCKmDT2VnbxzAlIaUUpRoA2gJQwhESDdAPNMfwJSGlFKUaANoCUMIHR4NxXgpAcCUhpRSlGgDaAlDCMzbd41M5fU/lIaUUpRoA2gJQwi/LjbDRcAMwJSGlFKUaANoCUMIqpORvU6w9D+UhpRSlGgDaAlDCN1O7xKDW+A/lIaUUpRoA2gJQwjdTu8Sg1vgP5SGlFKUaANoCUMI3U7vEoNb4D+UhpRSlGgDaAlDCHXMUwp4l/o/lIaUUpRoA2gJQwjr1Vu56Db6P5SGlFKUaANoCUMIMMxu/PRzFECUhpRSlGgDaAlDCNiVZTV+gABAlIaUUpRoA2gJQwh5eU0oLKIBQJSGlFKUaANoCUMIM37Rf+RxAUCUhpRSlGgDaAlDCLeTI/DT2vw/lIaUUpRoA2gJQwjr1Vu56Db6P5SGlFKUaANoCUMI651DWr0/4z+UhpRSlGgDaAlDCOudQ1q9P+M/lIaUUpRoA2gJQwjrnUNavT/jP5SGlFKUaANoCUMIcZinR4yq/D+UhpRSlGgDaAlDCJNP0J7Ogw1AlIaUUpRoA2gJQwiTT9CezoMNQJSGlFKUaANoCUMIoaYzTrUZ/D+UhpRSlGgDaAlDCKjWc3Rh/OA/lIaUUpRoA2gJQwio1nN0YfzgP5SGlFKUaANoCUMIqNZzdGH84D+UhpRSlGUu

$$$$
CHEMBL3265005
     RDKit          3D

 48 51  0  0  0  0  0  0  0  0999 V2000
   -4.2567   -3.1050   13.5684 C   0  0  0  0  0  0  0  0  0  0  0  0
   -3.8734   -2.3611   14.7148 O   0  0  0  0  0  0  0  0  0  0  0  0
   -2.5247   -2.1101   14.8166 C   0  0  0  0  0  0  0  0  0  0  0  0
   -1.7507   -2.8683   15.6828 C   0  0  0  0  0  0  0  0  0  0  0  0
   -0.3911   -2.6099   15.8185 C   0  0  0  0  0  0  0  0  0  0  0  0
    0.2170   -1.5863   15.0905 C   0  0  0  0  0  0  0  0  0  0  0  0
    1.6046   -1.3615   15.3286 N   0  0  0  0  0  0  0  0  0  0  0  0
    2.5322   -0.4485   14.7676 C   0  0  0  0  0  0  0  0  0  0  0  0
    2.1746    0.3813   13.7360 N   0  0  0  0  0  0  0  0  0  0  0  0
    3.1152    1.2349   13.2220 C   0  0  0  0  0  0  0  0  0  0  0  0
    4.4162    1.2784   13.7032 C   0  0  0  0  0  0  0  0  0  0  0  0
    4.7450    0.4849   14.7598 N   0  0  0  0  0  0  0  0  0  0  0  0
    5.8984    0.3795   15.4856 C   0  0  0  0  0  0  0  0  0  0  0  0
    5.5934   -0.5343   16.5244 C   0  0  0  0  0  0  0  0  0  0  0  0
    4.3805   -1.0504   16.3702 N   0  0  0  0  0  0  0  0  0  0  0  0
    3.8378   -0.3985   15.3258 C   0  0  0  0  0  0  0  0  0  0  0  0
    2.6545    2.1505   12.1229 C   0  0  0  0  0  0  0  0  0  0  0  0
    3.5650    2.6332   11.1660 C   0  0  0  0  0  0  0  0  0  0  0  0
    3.1279    3.4532   10.1263 C   0  0  0  0  0  0  0  0  0  0  0  0
    1.7853    3.8163   10.0263 C   0  0  0  0  0  0  0  0  0  0  0  0
    0.8655    3.3670   10.9906 C   0  0  0  0  0  0  0  0  0  0  0  0
    1.3076    2.5389   12.0352 C   0  0  0  0  0  0  0  0  0  0  0  0
   -0.6125    3.7616   10.9140 C   0  0  0  0  0  0  0  0  0  0  0  0
   -1.4124    3.3703   11.7502 O   0  0  0  0  0  0  0  0  0  0  0  0
   -0.9623    4.5440    9.8958 N   0  0  0  0  0  0  0  0  0  0  0  0
   -0.5525   -0.8154   14.1926 C   0  0  0  0  0  0  0  0  0  0  0  0
   -1.9431   -1.0889   14.0634 C   0  0  0  0  0  0  0  0  0  0  0  0
   -2.7491   -0.3514   13.2105 O   0  0  0  0  0  0  0  0  0  0  0  0
   -2.2119    0.5324   12.2516 C   0  0  0  0  0  0  0  0  0  0  0  0
   -5.3371   -3.2473   13.5828 H   0  0  0  0  0  0  0  0  0  0  0  0
   -3.7923   -4.0918   13.5617 H   0  0  0  0  0  0  0  0  0  0  0  0
   -4.0053   -2.5854   12.6423 H   0  0  0  0  0  0  0  0  0  0  0  0
   -2.2045   -3.6577   16.2649 H   0  0  0  0  0  0  0  0  0  0  0  0
    0.1939   -3.2023   16.5060 H   0  0  0  0  0  0  0  0  0  0  0  0
    1.9934   -1.9429   16.0579 H   0  0  0  0  0  0  0  0  0  0  0  0
    5.1774    1.9554   13.3408 H   0  0  0  0  0  0  0  0  0  0  0  0
    6.7817    0.9624   15.2771 H   0  0  0  0  0  0  0  0  0  0  0  0
    6.2343   -0.8101   17.3474 H   0  0  0  0  0  0  0  0  0  0  0  0
    4.6048    2.3502   11.2176 H   0  0  0  0  0  0  0  0  0  0  0  0
    3.8359    3.8027    9.3872 H   0  0  0  0  0  0  0  0  0  0  0  0
    1.4656    4.4411    9.2087 H   0  0  0  0  0  0  0  0  0  0  0  0
    0.6085    2.2013   12.7854 H   0  0  0  0  0  0  0  0  0  0  0  0
   -1.9282    4.8274    9.7978 H   0  0  0  0  0  0  0  0  0  0  0  0
   -0.2850    4.8642    9.2301 H   0  0  0  0  0  0  0  0  0  0  0  0
   -0.1105   -0.0248   13.6275 H   0  0  0  0  0  0  0  0  0  0  0  0
   -3.0285    0.9892   11.6884 H   0  0  0  0  0  0  0  0  0  0  0  0
   -1.5629    0.0226   11.5419 H   0  0  0  0  0  0  0  0  0  0  0  0
   -1.6668    1.3176   12.7602 H   0  0  0  0  0  0  0  0  0  0  0  0
  1  2  1  0
  1 30  1  0
  1 31  1  0
  1 32  1  0
  2  3  1  0
  3  4  2  0
  3 27  1  0
  4  5  1  0
  4 33  1  0
  5  6  2  0
  5 34  1  0
  6  7  1  0
  6 26  1  0
  7  8  1  0
  7 35  1  0
  8  9  2  0
  8 16  1  0
  9 10  1  0
 10 11  2  0
 10 17  1  0
 11 12  1  0
 11 36  1  0
 12 13  1  0
 12 16  1  0
 13 14  2  0
 13 37  1  0
 14 15  1  0
 14 38  1  0
 15 16  2  0
 17 18  2  0
 17 22  1  0
 18 19  1  0
 18 39  1  0
 19 20  2  0
 19 40  1  0
 20 21  1  0
 20 41  1  0
 21 22  2  0
 21 23  1  0
 22 42  1  0
 23 24  2  0
 23 25  1  0
 25 43  1  0
 25 44  1  0
 26 27  2  0
 26 45  1  0
 27 28  1  0
 28 29  1  0
 29 46  1  0
 29 47  1  0
 29 48  1  0
M  END
>  <IC50[nM]>  (37) 
27.100000000000001

>  <atom.dprop.PartialCharge>  (37) 
0.112579644 -0.3244373 0.08438024 -0.14469075 -0.1161633 0.12799957 -0.6968698 0.61495274 -0.6186405 0.16827208 -0.119870916 -0.06354023 -0.2885386 0.32783398 -0.6245808 0.26762003 -0.08092171 -0.08062059 -0.14295265 -0.090100735 -0.14074016 -0.055935103 0.67513907 -0.6053098 -0.6786075 -0.12371835 0.08282663 -0.33096302 0.11774885 0.045205195 0.045205195 0.045205195 0.14411367 0.1444727 0.4415165 0.17748658 0.18157378 0.0513539 0.1404846 0.14040498 0.1379142 0.15314136 0.31145072 0.31145072 0.1496342 0.042411916 0.042411916 0.042411916

>  <experimental dG reference units>  (37) 
nM

>  <experimental dG reference field>  (37) 
IC50[nM]

>  <kJ/mol experimental dG>  (37) 
-43.46094479243235

>  <kcal/mol experimental dG>  (37) 
-10.387415103353812

>  <AmberAM1BCCCache>  (37) 
gASV6wMAAAAAAABdlCiMFm51bXB5Ll9jb3JlLm11bHRpYXJyYXmUjAZzY2FsYXKUk5SMBW51bXB5lIwFZHR5cGWUk5SMAmY4lImIh5RSlChLA4wBPJROTk5K/////0r/////SwB0lGJDCI9g6iIDKvU/lIaUUpRoA2gJQwgyp+0rYdUNwJSGlFKUaANoCUMIq5c2fLG67z+UhpRSlGgDaAlDCLe/hfR6pP6/lIaUUpRoA2gJQwiqVES5qbP4v5SGlFKUaANoCUMIyJXAlB8g9z+UhpRSlGgDaAlDCHDQJ6deoyDAlIaUUpRoA2gJQwhGLcuHBKMgQJSGlFKUaANoCUMI32Ux7ZJQIcCUhpRSlGgDaAlDCItpAoGtcRVAlIaUUpRoA2gJQwjALPY6NmwEwJSGlFKUaANoCUMIsbcW8xx53z+UhpRSlGgDaAlDCB48Y1dNzwPAlIaUUpRoA2gJQwggGeOAMGChv5SGlFKUaANoCUMIvfhJeEp/BsCUhpRSlGgDaAlDCFKLRhGdpgDAlIaUUpRoA2gJQwhIHtbK4d76v5SGlFKUaANoCUMI7+72fuU06r+UhpRSlGgDaAlDCHYSDPCUV/u/lIaUUpRoA2gJQwgp+lCw3Rnyv5SGlFKUaANoCUMIUrDPPiEs+7+UhpRSlGgDaAlDCDXqcictZeq/lIaUUpRoA2gJQwjrg1kNlp8fQJSGlFKUaANoCUMIbUNOW7/VHMCUhpRSlGgDaAlDCEWTDwbqxh/AlIaUUpRoA2gJQwhF6ikI9vH8v5SGlFKUaANoCUMIQdN0Bnys9D+UhpRSlGgDaAlDCHeiadSoBQ7AlIaUUpRoA2gJQwilTdrEIev1P5SGlFKUaANoCUMI5B/U/+Cd4D+UhpRSlGgDaAlDCOQf1P/gneA/lIaUUpRoA2gJQwjkH9T/4J3gP5SGlFKUaANoCUMILaV2SnmY+j+UhpRSlGgDaAlDCOmp+qExaPo/lIaUUpRoA2gJQwjHAYdBPnoUQJSGlFKUaANoCUMIef3yfUaxAECUhpRSlGgDaAlDCHjjnJzQugFAlIaUUpRoA2gJQwiQ6uIfZXIBQJSGlFKUaANoCUMIWGUArUAk/T+UhpRSlGgDaAlDCEasvM0NUPo/lIaUUpRoA2gJQwhIxhKvg0b5P5SGlFKUaANoCUMIs01s96YV/j+UhpRSlGgDaAlDCPC74T5PhA1AlIaUUpRoA2gJQwjwu+E+T4QNQJSGlFKUaANoCUMItWfC2BwM/T+UhpRSlGgDaAlDCA9fEtmXHuE/lIaUUpRoA2gJQwgPXxLZlx7hP5SGlFKUaANoCUMID18S2Zce4T+UhpRSlGUu

$$$$
CHEMBL3265011
     RDKit          3D

 51 54  0  0  0  0  0  0  0  0999 V2000
   -4.2555   -3.1029   13.5707 C   0  0  0  0  0  0  0  0  0  0  0  0
   -3.8740   -2.3535   14.7166 O   0  0  0  0  0  0  0  0  0  0  0  0
   -2.5261   -2.1057   14.8053 C   0  0  0  0  0  0  0  0  0  0  0  0
   -1.7497   -2.8673   15.6804 C   0  0  0  0  0  0  0  0  0  0  0  0
   -0.3863   -2.6106   15.8150 C   0  0  0  0  0  0  0  0  0  0  0  0
    0.2220   -1.5829   15.0890 C   0  0  0  0  0  0  0  0  0  0  0  0
    1.5930   -1.3491   15.3060 N   0  0  0  0  0  0  0  0  0  0  0  0
    2.5452   -0.4689   14.7536 C   0  0  0  0  0  0  0  0  0  0  0  0
    2.2178    0.3551   13.7190 N   0  0  0  0  0  0  0  0  0  0  0  0
    3.1227    1.2406   13.2181 C   0  0  0  0  0  0  0  0  0  0  0  0
    4.4207    1.3039   13.7175 C   0  0  0  0  0  0  0  0  0  0  0  0
    4.7482    0.4921   14.7654 N   0  0  0  0  0  0  0  0  0  0  0  0
    5.8898    0.3836   15.5035 C   0  0  0  0  0  0  0  0  0  0  0  0
    5.5715   -0.5089   16.5177 C   0  0  0  0  0  0  0  0  0  0  0  0
    4.3818   -1.0543   16.3920 N   0  0  0  0  0  0  0  0  0  0  0  0
    3.8330   -0.4170   15.3252 C   0  0  0  0  0  0  0  0  0  0  0  0
    2.6564    2.1560   12.1340 C   0  0  0  0  0  0  0  0  0  0  0  0
    1.3140    2.5576   12.0419 C   0  0  0  0  0  0  0  0  0  0  0  0
    0.8660    3.3707   10.9895 C   0  0  0  0  0  0  0  0  0  0  0  0
    1.7879    3.8078   10.0318 C   0  0  0  0  0  0  0  0  0  0  0  0
    3.1294    3.4499   10.1277 C   0  0  0  0  0  0  0  0  0  0  0  0
    3.5566    2.6280   11.1666 C   0  0  0  0  0  0  0  0  0  0  0  0
    4.9972    2.2126   11.2105 C   0  0  0  0  0  0  0  0  0  0  0  0
   -0.5881    3.7303   10.8428 C   0  0  0  0  0  0  0  0  0  0  0  0
   -1.1092    3.7021    9.7263 O   0  0  0  0  0  0  0  0  0  0  0  0
   -1.2179    4.0963   11.9826 N   0  0  0  0  0  0  0  0  0  0  0  0
   -0.5664   -0.8256   14.2115 C   0  0  0  0  0  0  0  0  0  0  0  0
   -1.9389   -1.0760   14.0580 C   0  0  0  0  0  0  0  0  0  0  0  0
   -2.6987   -0.3081   13.1992 O   0  0  0  0  0  0  0  0  0  0  0  0
   -2.0021    0.6722   12.5223 C   0  0  0  0  0  0  0  0  0  0  0  0
   -5.3290   -3.2895   13.5939 H   0  0  0  0  0  0  0  0  0  0  0  0
   -3.7452   -4.0667   13.5449 H   0  0  0  0  0  0  0  0  0  0  0  0
   -4.0270   -2.5627   12.6510 H   0  0  0  0  0  0  0  0  0  0  0  0
   -2.2099   -3.6533   16.2602 H   0  0  0  0  0  0  0  0  0  0  0  0
    0.1911   -3.2106   16.5025 H   0  0  0  0  0  0  0  0  0  0  0  0
    2.0257   -1.8895   16.0445 H   0  0  0  0  0  0  0  0  0  0  0  0
    5.1717    2.0006   13.3700 H   0  0  0  0  0  0  0  0  0  0  0  0
    6.7663    0.9729   15.2892 H   0  0  0  0  0  0  0  0  0  0  0  0
    6.2094   -0.8335   17.3296 H   0  0  0  0  0  0  0  0  0  0  0  0
    0.6068    2.1879   12.7700 H   0  0  0  0  0  0  0  0  0  0  0  0
    1.4521    4.4207    9.2063 H   0  0  0  0  0  0  0  0  0  0  0  0
    3.8319    3.7891    9.3801 H   0  0  0  0  0  0  0  0  0  0  0  0
    5.5347    2.6775   10.3840 H   0  0  0  0  0  0  0  0  0  0  0  0
    5.0655    1.1282   11.1241 H   0  0  0  0  0  0  0  0  0  0  0  0
    5.4384    2.5303   12.1552 H   0  0  0  0  0  0  0  0  0  0  0  0
   -2.1896    4.3530   11.9274 H   0  0  0  0  0  0  0  0  0  0  0  0
   -0.7063    4.1173   12.8487 H   0  0  0  0  0  0  0  0  0  0  0  0
   -0.1540   -0.0199   13.6303 H   0  0  0  0  0  0  0  0  0  0  0  0
   -2.6849    1.2208   11.8735 H   0  0  0  0  0  0  0  0  0  0  0  0
   -1.2195    0.2114   11.9195 H   0  0  0  0  0  0  0  0  0  0  0  0
   -1.5517    1.3587   13.2392 H   0  0  0  0  0  0  0  0  0  0  0  0
  1  2  1  0
  1 31  1  0
  1 32  1  0
  1 33  1  0
  2  3  1  0
  3  4  2  0
  3 28  1  0
  4  5  1  0
  4 34  1  0
  5  6  2  0
  5 35  1  0
  6  7  1  0
  6 27  1  0
  7  8  1  0
  7 36  1  0
  8  9  2  0
  8 16  1  0
  9 10  1  0
 10 11  2  0
 10 17  1  0
 11 12  1  0
 11 37  1  0
 12 13  1  0
 12 16  1  0
 13 14  2  0
 13 38  1  0
 14 15  1  0
 14 39  1  0
 15 16  2  0
 17 18  2  0
 17 22  1  0
 18 19  1  0
 18 40  1  0
 19 20  2  0
 19 24  1  0
 20 21  1  0
 20 41  1  0
 21 22  2  0
 21 42  1  0
 22 23  1  0
 23 43  1  0
 23 44  1  0
 23 45  1  0
 24 25  2  0
 24 26  1  0
 26 46  1  0
 26 47  1  0
 27 28  2  0
 27 48  1  0
 28 29  1  0
 29 30  1  0
 30 49  1  0
 30 50  1  0
 30 51  1  0
M  END
>  <IC50[nM]>  (38) 
466

>  <atom.dprop.PartialCharge>  (38) 
0.11302785 -0.32398903 0.08482843 -0.14424253 -0.11571509 0.12844776 -0.6964842 0.6185428 -0.628584 0.17533922 -0.12541017 -0.06780009 -0.28749618 0.32828212 -0.62413245 0.26825646 -0.09399666 -0.050051816 -0.14820085 -0.08541999 -0.14631668 -0.027899455 -0.055310376 0.67769074 -0.6023295 -0.67921376 -0.123270124 0.08327481 -0.33051473 0.118197046 0.045653407 0.045653407 0.045653407 0.1445619 0.14492093 0.4419647 0.17582725 0.182022 0.051802114 0.14994866 0.13778639 0.14014857 0.050695762 0.050695762 0.050695762 0.31189892 0.31189892 0.15008242 0.042860128 0.042860128 0.042860128

>  <experimental dG reference units>  (38) 
nM

>  <experimental dG reference field>  (38) 
IC50[nM]

>  <kJ/mol experimental dG>  (38) 
-36.36537774187534

>  <kcal/mol experimental dG>  (38) 
-8.691533877121257

>  <AmberAM1BCCCache>  (38) 
gASVJAQAAAAAAABdlCiMFm51bXB5Ll9jb3JlLm11bHRpYXJyYXmUjAZzY2FsYXKUk5SMBW51bXB5lIwFZHR5cGWUk5SMAmY4lImIh5RSlChLA4wBPJROTk5K/////0r/////SwB0lGJDCHVtwy7mcfU/lIaUUpRoA2gJQwhJ/aIViRsPwJSGlFKUaANoCUMI9Fb1iquw6T+UhpRSlGgDaAlDCNKyrOiXXP6/lIaUUpRoA2gJQwgiSi3ZolP4v5SGlFKUaANoCUMIaacd+Lo39z+UhpRSlGgDaAlDCA4t2yR9rCDAlIaUUpRoA2gJQwiMkYCa2JAgQJSGlFKUaANoCUMIoEZ4t3IvIcCUhpRSlGgDaAlDCLgvq3p5ZRVAlIaUUpRoA2gJQwjxo0eJaGAEwJSGlFKUaANoCUMIGBGb3msW3z+UhpRSlGgDaAlDCCCy04+RzwPAlIaUUpRoA2gJQwjgTcAkuXWkv5SGlFKUaANoCUMIBGo2WdavBsCUhpRSlGgDaAlDCFQBt0nhpgDAlIaUUpRoA2gJQwhK8GBa9Oj7v5SGlFKUaANoCUMIbQRt0lLC57+UhpRSlGgDaAlDCN94Uh/Dlvy/lIaUUpRoA2gJQwhz+wOrI0Hxv5SGlFKUaANoCUMIj+vcAjwZ/L+UhpRSlGgDaAlDCNQbMq64CMG/lIaUUpRoA2gJQwi/xY6xxSzmv5SGlFKUaANoCUMII8dP0I6xH0CUhpRSlGgDaAlDCG9+hnfh1RzAlIaUUpRoA2gJQwjdTjgtA8EfwJSGlFKUaANoCUMIrUAlKjK0+L+UhpRSlGgDaAlDCBHzXXBAM/Q/lIaUUpRoA2gJQwiN+B6+0EsPwJSGlFKUaANoCUMI5kIfG2sk9z+UhpRSlGgDaAlDCNIeawIEveA/lIaUUpRoA2gJQwjSHmsCBL3gP5SGlFKUaANoCUMI0h5rAgS94D+UhpRSlGgDaAlDCOW9GTGpZ/o/lIaUUpRoA2gJQwhDwNtchU/6P5SGlFKUaANoCUMI0kOc7kiYFECUhpRSlGgDaAlDCI+BHdhb7QBAlIaUUpRoA2gJQwhIbEtOnsYBQJSGlFKUaANoCUMIjnRy5yByAUCUhpRSlGgDaAlDCFNfyVpCLf4/lIaUUpRoA2gJQwjn128SH175P5SGlFKUaANoCUMIoMKdiGE3+j+UhpRSlGgDaAlDCKU2jCdJUuQ/lIaUUpRoA2gJQwilNownSVLkP5SGlFKUaANoCUMIpTaMJ0lS5D+UhpRSlGgDaAlDCIXGYRECfg1AlIaUUpRoA2gJQwiFxmERAn4NQJSGlFKUaANoCUMIDWRNsvr8/T+UhpRSlGgDaAlDCP1dqdu6PeE/lIaUUpRoA2gJQwj9Xanbuj3hP5SGlFKUaANoCUMI/V2p27o94T+UhpRSlGUu

$$$$
CHEMBL3265010
     RDKit          3D

 52 55  0  0  0  0  0  0  0  0999 V2000
   -4.2561   -3.1063   13.5675 C   0  0  0  0  0  0  0  0  0  0  0  0
   -3.8710   -2.3586   14.7108 O   0  0  0  0  0  0  0  0  0  0  0  0
   -2.5237   -2.1120   14.8115 C   0  0  0  0  0  0  0  0  0  0  0  0
   -1.7479   -2.8731   15.6758 C   0  0  0  0  0  0  0  0  0  0  0  0
   -0.3907   -2.6159   15.8114 C   0  0  0  0  0  0  0  0  0  0  0  0
    0.2188   -1.5872   15.0906 C   0  0  0  0  0  0  0  0  0  0  0  0
    1.6061   -1.3639   15.3275 N   0  0  0  0  0  0  0  0  0  0  0  0
    2.5365   -0.4468   14.7698 C   0  0  0  0  0  0  0  0  0  0  0  0
    2.1734    0.3862   13.7543 N   0  0  0  0  0  0  0  0  0  0  0  0
    3.1090    1.2399   13.2318 C   0  0  0  0  0  0  0  0  0  0  0  0
    4.4091    1.2828   13.7040 C   0  0  0  0  0  0  0  0  0  0  0  0
    4.7384    0.4983   14.7655 N   0  0  0  0  0  0  0  0  0  0  0  0
    5.8943    0.3897   15.4869 C   0  0  0  0  0  0  0  0  0  0  0  0
    5.5998   -0.5422   16.5164 C   0  0  0  0  0  0  0  0  0  0  0  0
    4.3902   -1.0596   16.3683 N   0  0  0  0  0  0  0  0  0  0  0  0
    3.8368   -0.3957   15.3337 C   0  0  0  0  0  0  0  0  0  0  0  0
    2.6487    2.1497   12.1257 C   0  0  0  0  0  0  0  0  0  0  0  0
    3.5566    2.6396   11.1692 C   0  0  0  0  0  0  0  0  0  0  0  0
    3.1227    3.4570   10.1283 C   0  0  0  0  0  0  0  0  0  0  0  0
    1.7703    3.8176   10.0234 C   0  0  0  0  0  0  0  0  0  0  0  0
    1.3292    4.6020    8.9846 O   0  0  0  0  0  0  0  0  0  0  0  0
    2.1136    5.6875    8.5183 C   0  0  0  0  0  0  0  0  0  0  0  0
    0.8614    3.3613   10.9917 C   0  0  0  0  0  0  0  0  0  0  0  0
    1.3049    2.5285   12.0328 C   0  0  0  0  0  0  0  0  0  0  0  0
   -0.6146    3.7607   10.8922 C   0  0  0  0  0  0  0  0  0  0  0  0
   -1.0753    4.3040    9.8978 O   0  0  0  0  0  0  0  0  0  0  0  0
   -1.3527    3.4740   11.9629 N   0  0  0  0  0  0  0  0  0  0  0  0
   -0.5555   -0.8165   14.1949 C   0  0  0  0  0  0  0  0  0  0  0  0
   -1.9469   -1.0910   14.0631 C   0  0  0  0  0  0  0  0  0  0  0  0
   -2.7598   -0.3552   13.2170 O   0  0  0  0  0  0  0  0  0  0  0  0
   -2.2311    0.6451   12.3776 C   0  0  0  0  0  0  0  0  0  0  0  0
   -5.3364   -3.2553   13.5856 H   0  0  0  0  0  0  0  0  0  0  0  0
   -3.7839   -4.0901   13.5556 H   0  0  0  0  0  0  0  0  0  0  0  0
   -4.0101   -2.5845   12.6407 H   0  0  0  0  0  0  0  0  0  0  0  0
   -2.2034   -3.6660   16.2562 H   0  0  0  0  0  0  0  0  0  0  0  0
    0.1971   -3.2189   16.4942 H   0  0  0  0  0  0  0  0  0  0  0  0
    2.0037   -1.9659   16.0267 H   0  0  0  0  0  0  0  0  0  0  0  0
    5.1760    1.9362   13.3182 H   0  0  0  0  0  0  0  0  0  0  0  0
    6.7838    0.9709   15.2741 H   0  0  0  0  0  0  0  0  0  0  0  0
    6.2446   -0.8293   17.3211 H   0  0  0  0  0  0  0  0  0  0  0  0
    4.6039    2.3672   11.2287 H   0  0  0  0  0  0  0  0  0  0  0  0
    3.8363    3.8116    9.4024 H   0  0  0  0  0  0  0  0  0  0  0  0
    1.5354    6.2089    7.7566 H   0  0  0  0  0  0  0  0  0  0  0  0
    3.0460    5.3492    8.0564 H   0  0  0  0  0  0  0  0  0  0  0  0
    2.3213    6.4278    9.2942 H   0  0  0  0  0  0  0  0  0  0  0  0
    0.6057    2.1603   12.7711 H   0  0  0  0  0  0  0  0  0  0  0  0
   -2.3373    3.7022   11.9713 H   0  0  0  0  0  0  0  0  0  0  0  0
   -0.9395    3.0411   12.7709 H   0  0  0  0  0  0  0  0  0  0  0  0
   -0.1099   -0.0241   13.6351 H   0  0  0  0  0  0  0  0  0  0  0  0
   -3.0414    1.0912   11.7946 H   0  0  0  0  0  0  0  0  0  0  0  0
   -1.4766    0.2728   11.6770 H   0  0  0  0  0  0  0  0  0  0  0  0
   -1.8063    1.4100   13.0251 H   0  0  0  0  0  0  0  0  0  0  0  0
  1  2  1  0
  1 32  1  0
  1 33  1  0
  1 34  1  0
  2  3  1  0
  3  4  2  0
  3 29  1  0
  4  5  1  0
  4 35  1  0
  5  6  2  0
  5 36  1  0
  6  7  1  0
  6 28  1  0
  7  8  1  0
  7 37  1  0
  8  9  2  0
  8 16  1  0
  9 10  1  0
 10 11  2  0
 10 17  1  0
 11 12  1  0
 11 38  1  0
 12 13  1  0
 12 16  1  0
 13 14  2  0
 13 39  1  0
 14 15  1  0
 14 40  1  0
 15 16  2  0
 17 18  2  0
 17 24  1  0
 18 19  1  0
 18 41  1  0
 19 20  2  0
 19 42  1  0
 20 21  1  0
 20 23  1  0
 21 22  1  0
 22 43  1  0
 22 44  1  0
 22 45  1  0
 23 24  2  0
 23 25  1  0
 24 46  1  0
 25 26  2  0
 25 27  1  0
 27 47  1  0
 27 48  1  0
 28 29  2  0
 28 49  1  0
 29 30  1  0
 30 31  1  0
 31 50  1  0
 31 51  1  0
 31 52  1  0
M  END
>  <IC50[nM]>  (39) 
37.399999999999999

>  <atom.dprop.PartialCharge>  (39) 
0.11199421 -0.32502282 0.08379482 -0.14527623 -0.11674875 0.12741417 -0.69745547 0.6143673 -0.61777395 0.17851724 -0.12130113 -0.06412569 -0.2891241 0.32724863 -0.6251665 0.2670346 -0.11033951 -0.061263144 -0.20301661 0.18480943 -0.30990773 0.11520594 -0.18981816 -0.040541694 0.69465524 -0.59226507 -0.6759984 -0.12430383 0.0822412 -0.3315485 0.11716342 0.04461974 0.04461974 0.04461974 0.1435282 0.14388722 0.44093102 0.1769011 0.1809883 0.050768442 0.13565251 0.14498486 0.04766213 0.04766213 0.04766213 0.14715646 0.3101897 0.3101897 0.14904872 0.041826464 0.041826464 0.041826464

>  <experimental dG reference units>  (39) 
nM

>  <experimental dG reference field>  (39) 
IC50[nM]

>  <kJ/mol experimental dG>  (39) 
-42.65742134147773

>  <kcal/mol experimental dG>  (39) 
-10.195368389454524

>  <AmberAM1BCCCache>  (39) 
gASVNwQAAAAAAABdlCiMFm51bXB5Ll9jb3JlLm11bHRpYXJyYXmUjAZzY2FsYXKUk5SMBW51bXB5lIwFZHR5cGWUk5SMAmY4lImIh5RSlChLA4wBPJROTk5K/////0r/////SwB0lGJDCMix6si63vQ/lIaUUpRoA2gJQwiwn4m9D6kMwJSGlFKUaANoCUMI82EpHpDt8T+UhpRSlGgDaAlDCK58EVXsXv6/lIaUUpRoA2gJQwgr7nGJNNj5v5SGlFKUaANoCUMIicNiqvA++D+UhpRSlGgDaAlDCHjHSMi1oCDAlIaUUpRoA2gJQwicOGySiY0gQJSGlFKUaANoCUMIUNxhA/NTIcCUhpRSlGgDaAlDCLX57h0aiRVAlIaUUpRoA2gJQwgNClvVgFUEwJSGlFKUaANoCUMIMuD/falt3z+UhpRSlGgDaAlDCGsZyPGXuAPAlIaUUpRoA2gJQwhriVmxRsCkv5SGlFKUaANoCUMIrNPs5riABsCUhpRSlGgDaAlDCOVjJ1QvwADAlIaUUpRoA2gJQwgPnAuwfY0AwJSGlFKUaANoCUMIEBwP5Nrw27+UhpRSlGgDaAlDCJQ3VmxwjwTAlIaUUpRoA2gJQwjcKSCOCWD+P5SGlFKUaANoCUMI7KJenzAfEMCUhpRSlGgDaAlDCCOaVhMh0PU/lIaUUpRoA2gJQwid7W5kIf7/v5SGlFKUaANoCUMIaNDOa1X13r+UhpRSlGgDaAlDCP4MACdu/x9AlIaUUpRoA2gJQwhOIwSXRGEdwJSGlFKUaANoCUMISh5aYOGZHsCUhpRSlGgDaAlDCFOK3GeKQgHAlIaUUpRoA2gJQwil/lTwcOP1P5SGlFKUaANoCUMIU53HkTPBDMCUhpRSlGgDaAlDCIO2biBzrvQ/lIaUUpRoA2gJQwiPlKnYy1fgP5SGlFKUaANoCUMIj5Sp2MtX4D+UhpRSlGgDaAlDCI+UqdjLV+A/lIaUUpRoA2gJQwhN7zBtnJX6P5SGlFKUaANoCUMICfS0xFRl+j+UhpRSlGgDaAlDCEMX6EBaWxRAlIaUUpRoA2gJQwgVGUhgZxABQJSGlFKUaANoCUMIKwY4AobRAUCUhpRSlGgDaAlDCKAPQLH2cAFAlIaUUpRoA2gJQwjVsXz7Pwn9P5SGlFKUaANoCUMIHuGkZnMm+z+UhpRSlGgDaAlDCBLtBc922+I/lIaUUpRoA2gJQwgS7QXPdtviP5SGlFKUaANoCUMIEu0Fz3bb4j+UhpRSlGgDaAlDCLyQ4JY1W/4/lIaUUpRoA2gJQwgu4h/mznYNQJSGlFKUaANoCUMILuIf5s52DUCUhpRSlGgDaAlDCHrJELHZF/w/lIaUUpRoA2gJQwi60+exgtjgP5SGlFKUaANoCUMIutPnsYLY4D+UhpRSlGgDaAlDCLrT57GC2OA/lIaUUpRlLg==

$$$$
CHEMBL3264998
     RDKit          3D

 63 67  0  0  0  0  0  0  0  0999 V2000
   -4.2555   -3.1029   13.5707 C   0  0  0  0  0  0  0  0  0  0  0  0
   -3.8740   -2.3535   14.7166 O   0  0  0  0  0  0  0  0  0  0  0  0
   -2.5261   -2.1057   14.8053 C   0  0  0  0  0  0  0  0  0  0  0  0
   -1.7497   -2.8673   15.6804 C   0  0  0  0  0  0  0  0  0  0  0  0
   -0.3863   -2.6106   15.8150 C   0  0  0  0  0  0  0  0  0  0  0  0
    0.2220   -1.5829   15.0890 C   0  0  0  0  0  0  0  0  0  0  0  0
    1.5930   -1.3491   15.3060 N   0  0  0  0  0  0  0  0  0  0  0  0
    2.5452   -0.4689   14.7536 C   0  0  0  0  0  0  0  0  0  0  0  0
    2.2178    0.3551   13.7190 N   0  0  0  0  0  0  0  0  0  0  0  0
    3.1227    1.2406   13.2181 C   0  0  0  0  0  0  0  0  0  0  0  0
    4.4207    1.3039   13.7175 C   0  0  0  0  0  0  0  0  0  0  0  0
    4.7482    0.4921   14.7654 N   0  0  0  0  0  0  0  0  0  0  0  0
    5.8898    0.3836   15.5035 C   0  0  0  0  0  0  0  0  0  0  0  0
    5.5715   -0.5089   16.5177 C   0  0  0  0  0  0  0  0  0  0  0  0
    4.3818   -1.0543   16.3920 N   0  0  0  0  0  0  0  0  0  0  0  0
    3.8330   -0.4170   15.3252 C   0  0  0  0  0  0  0  0  0  0  0  0
    2.6564    2.1560   12.1340 C   0  0  0  0  0  0  0  0  0  0  0  0
    3.5566    2.6280   11.1666 C   0  0  0  0  0  0  0  0  0  0  0  0
    3.1294    3.4499   10.1277 C   0  0  0  0  0  0  0  0  0  0  0  0
    1.7879    3.8078   10.0318 C   0  0  0  0  0  0  0  0  0  0  0  0
    0.8660    3.3707   10.9895 C   0  0  0  0  0  0  0  0  0  0  0  0
    1.3140    2.5576   12.0419 C   0  0  0  0  0  0  0  0  0  0  0  0
   -0.5783    3.7648   10.8956 C   0  0  0  0  0  0  0  0  0  0  0  0
   -1.2695    3.6885    9.8840 O   0  0  0  0  0  0  0  0  0  0  0  0
   -1.0448    4.2194   12.0590 N   0  0  0  0  0  0  0  0  0  0  0  0
   -2.4077    4.6825   12.3031 C   0  0  0  0  0  0  0  0  0  0  0  0
   -2.6783    5.5030   13.3918 C   0  0  0  0  0  0  0  0  0  0  0  0
   -3.9757    5.9439   13.6242 C   0  0  0  0  0  0  0  0  0  0  0  0
   -5.0025    5.5643   12.7679 C   0  0  0  0  0  0  0  0  0  0  0  0
   -6.4027    6.0402   13.0187 C   0  0  0  0  0  0  0  0  0  0  0  0
   -6.6249    7.3398   12.3033 C   0  0  0  0  0  0  0  0  0  0  0  0
   -7.5065    7.4520   11.4386 O   0  0  0  0  0  0  0  0  0  0  0  0
   -5.8982    8.2982   12.6048 O   0  0  0  0  0  0  0  0  0  0  0  0
   -4.7319    4.7439   11.6792 C   0  0  0  0  0  0  0  0  0  0  0  0
   -3.4345    4.3030   11.4468 C   0  0  0  0  0  0  0  0  0  0  0  0
   -0.5664   -0.8256   14.2115 C   0  0  0  0  0  0  0  0  0  0  0  0
   -1.9389   -1.0760   14.0580 C   0  0  0  0  0  0  0  0  0  0  0  0
   -2.6991   -0.3052   13.2021 O   0  0  0  0  0  0  0  0  0  0  0  0
   -2.0020    0.6746   12.5251 C   0  0  0  0  0  0  0  0  0  0  0  0
   -3.7528   -4.0708   13.5508 H   0  0  0  0  0  0  0  0  0  0  0  0
   -4.0179   -2.5675   12.6505 H   0  0  0  0  0  0  0  0  0  0  0  0
   -5.3306   -3.2808   13.5889 H   0  0  0  0  0  0  0  0  0  0  0  0
   -2.2100   -3.6528   16.2607 H   0  0  0  0  0  0  0  0  0  0  0  0
    0.1911   -3.2101   16.5029 H   0  0  0  0  0  0  0  0  0  0  0  0
    2.0246   -1.8858   16.0475 H   0  0  0  0  0  0  0  0  0  0  0  0
    5.1701    2.0030   13.3719 H   0  0  0  0  0  0  0  0  0  0  0  0
    6.7656    0.9739   15.2897 H   0  0  0  0  0  0  0  0  0  0  0  0
    6.2089   -0.8330   17.3301 H   0  0  0  0  0  0  0  0  0  0  0  0
    4.5934    2.3309   11.2002 H   0  0  0  0  0  0  0  0  0  0  0  0
    3.8342    3.7939    9.3845 H   0  0  0  0  0  0  0  0  0  0  0  0
    1.4564    4.4350    9.2166 H   0  0  0  0  0  0  0  0  0  0  0  0
    0.6053    2.2130   12.7811 H   0  0  0  0  0  0  0  0  0  0  0  0
   -0.5125    4.2989   12.9136 H   0  0  0  0  0  0  0  0  0  0  0  0
   -1.8789    5.7984   14.0585 H   0  0  0  0  0  0  0  0  0  0  0  0
   -4.1864    6.5826   14.4718 H   0  0  0  0  0  0  0  0  0  0  0  0
   -6.5512    6.1845   14.0889 H   0  0  0  0  0  0  0  0  0  0  0  0
   -7.1104    5.2973   12.6507 H   0  0  0  0  0  0  0  0  0  0  0  0
   -5.5313    4.4485   11.0125 H   0  0  0  0  0  0  0  0  0  0  0  0
   -3.2239    3.6643   10.5991 H   0  0  0  0  0  0  0  0  0  0  0  0
   -0.1547   -0.0168   13.6337 H   0  0  0  0  0  0  0  0  0  0  0  0
   -2.6851    1.2257   11.8787 H   0  0  0  0  0  0  0  0  0  0  0  0
   -1.2218    0.2131   11.9198 H   0  0  0  0  0  0  0  0  0  0  0  0
   -1.5485    1.3591   13.2420 H   0  0  0  0  0  0  0  0  0  0  0  0
  1  2  1  0
  1 40  1  0
  1 41  1  0
  1 42  1  0
  2  3  1  0
  3  4  2  0
  3 37  1  0
  4  5  1  0
  4 43  1  0
  5  6  2  0
  5 44  1  0
  6  7  1  0
  6 36  1  0
  7  8  1  0
  7 45  1  0
  8  9  2  0
  8 16  1  0
  9 10  1  0
 10 11  2  0
 10 17  1  0
 11 12  1  0
 11 46  1  0
 12 13  1  0
 12 16  1  0
 13 14  2  0
 13 47  1  0
 14 15  1  0
 14 48  1  0
 15 16  2  0
 17 18  2  0
 17 22  1  0
 18 19  1  0
 18 49  1  0
 19 20  2  0
 19 50  1  0
 20 21  1  0
 20 51  1  0
 21 22  2  0
 21 23  1  0
 22 52  1  0
 23 24  2  0
 23 25  1  0
 25 26  1  0
 25 53  1  0
 26 27  2  0
 26 35  1  0
 27 28  1  0
 27 54  1  0
 28 29  2  0
 28 55  1  0
 29 30  1  0
 29 34  1  0
 30 31  1  0
 30 56  1  0
 30 57  1  0
 31 32  2  0
 31 33  1  0
 34 35  2  0
 34 58  1  0
 35 59  1  0
 36 37  2  0
 36 60  1  0
 37 38  1  0
 38 39  1  0
 39 61  1  0
 39 62  1  0
 39 63  1  0
M  CHG  1  33  -1
M  END
>  <IC50[nM]>  (40) 
2.6000000000000001

>  <atom.dprop.PartialCharge>  (40) 
0.1098407 -0.32717663 0.08164134 -0.14742991 -0.118902326 0.12526077 -0.6996099 0.61221385 -0.62138027 0.16624463 -0.12261004 -0.06627929 -0.2912779 0.3250954 -0.6273208 0.26488107 -0.07733328 -0.08167732 -0.14015317 -0.09855585 -0.14758265 -0.076557025 0.68032247 -0.574816 -0.49005908 -0.0013520308 -0.14145769 -0.11656885 0.016155627 -0.20427948 0.92646885 -0.81540823 -0.81540823 -0.11656885 -0.14145769 -0.1264575 0.08008772 -0.33370236 0.11500992 0.04246616 0.04246616 0.04246616 0.14137456 0.14173354 0.4387774 0.17474744 0.17883462 0.048614852 0.13774544 0.13772604 0.14171213 0.1514772 0.31285387 0.12193042 0.14186877 0.045826163 0.045826163 0.14186877 0.12193042 0.14689504 0.03967289 0.03967289 0.03967289

>  <experimental dG reference units>  (40) 
nM

>  <experimental dG reference field>  (40) 
IC50[nM]

>  <kJ/mol experimental dG>  (40) 
-49.30776465799695

>  <kcal/mol experimental dG>  (40) 
-11.784838589387416

>  <AmberAM1BCCCache>  (40) 
gASVCAUAAAAAAABdlCiMFm51bXB5Ll9jb3JlLm11bHRpYXJyYXmUjAZzY2FsYXKUk5SMBW51bXB5lIwFZHR5cGWUk5SMAmY4lImIh5RSlChLA4wBPJROTk5K/////0r/////SwB0lGJDCDq/zCqoFfU/lIaUUpRoA2gJQwjgkVKJBNYMwJSGlFKUaANoCUMIZ6O3QmkR8D+UhpRSlGgDaAlDCGt9u/knl/2/lIaUUpRoA2gJQwhYxHca9cL6v5SGlFKUaANoCUMIKKskUBv4+T+UhpRSlGgDaAlDCPiG7THGjSDAlIaUUpRoA2gJQwiQgs/X6T8gQJSGlFKUaANoCUMIdkIYqB79IMCUhpRSlGgDaAlDCBF9Z3bVlhVAlIaUUpRoA2gJQwjJDHLTetkDwJSGlFKUaANoCUMI/QrEgq8k4D+UhpRSlGgDaAlDCPgNU+lozQPAlIaUUpRoA2gJQwj1vopZNwOzv5SGlFKUaANoCUMIxL5vLxn2BsCUhpRSlGgDaAlDCENkfCZNXADAlIaUUpRoA2gJQwhslxHbnY38v5SGlFKUaANoCUMICNPhmDQj7r+UhpRSlGgDaAlDCG6xZ7wThPu/lIaUUpRoA2gJQwjcnTDUFBbyv5SGlFKUaANoCUMIBm4FRM4e+r+UhpRSlGgDaAlDCFACCgRoQOy/lIaUUpRoA2gJQwjnoMaxLmQfQJSGlFKUaANoCUMIxLgAChFWHMCUhpRSlGgDaAlDCEZruPF/NxXAlIaUUpRoA2gJQwj3mOTnI1OmP5SGlFKUaANoCUMIDGGj7NW4/r+UhpRSlGgDaAlDCBkkqQZK8fa/lIaUUpRoA2gJQwixCVO6hoDRv5SGlFKUaANoCUMIWl4XuaaYAMCUhpRSlGgDaAlDCF3IPBVOoiVAlIaUUpRoA2gJQwhnNUhMms4jwJSGlFKUaANoCUMIZzVITJrOI8CUhpRSlGgDaAlDCBkkqQZK8fa/lIaUUpRoA2gJQwgMYaPs1bj+v5SGlFKUaANoCUMI9mtXAXoYAsCUhpRSlGgDaAlDCBcMN1JeGvY/lIaUUpRoA2gJQwgljc4xTAYNwJSGlFKUaANoCUMI9cNQgmDl9D+UhpRSlGgDaAlDCOUomGNAiN8/lIaUUpRoA2gJQwjlKJhjQIjfP5SGlFKUaANoCUMI5SiYY0CI3z+UhpRSlGgDaAlDCDYGG376a/o/lIaUUpRoA2gJQwjA/BLPicz6P5SGlFKUaANoCUMIWp/k8M04FECUhpRSlGgDaAlDCM4fORHeKwFAlIaUUpRoA2gJQwhBD+ve2NQBQJSGlFKUaANoCUMIzh85Ed4rAUCUhpRSlGgDaAlDCNbpAnGojfs/lIaUUpRoA2gJQwggGSvc26r5P5SGlFKUaANoCUMIkO6GyGBd+z+UhpRSlGgDaAlDCI262gV1cP0/lIaUUpRoA2gJQwhc8hhGtjENQJSGlFKUaANoCUMIOTrHQOZY+D+UhpRSlGgDaAlDCKOnyqeTMf4/lIaUUpRoA2gJQwi4TrgfAwbeP5SGlFKUaANoCUMIuE64HwMG3j+UhpRSlGgDaAlDCKOnyqeTMf4/lIaUUpRoA2gJQwg5OsdA5lj4P5SGlFKUaANoCUMIG+V+GfC9+z+UhpRSlGgDaAlDCJ5TCgvXROA/lIaUUpRoA2gJQwieUwoL10TgP5SGlFKUaANoCUMInlMKC9dE4D+UhpRSlGUu

$$$$
CHEMBL3265003
     RDKit          3D

 65 70  0  0  0  0  0  0  0  0999 V2000
   -4.2555   -3.1029   13.5707 C   0  0  0  0  0  0  0  0  0  0  0  0
   -3.8740   -2.3535   14.7166 O   0  0  0  0  0  0  0  0  0  0  0  0
   -2.5261   -2.1057   14.8053 C   0  0  0  0  0  0  0  0  0  0  0  0
   -1.7497   -2.8673   15.6804 C   0  0  0  0  0  0  0  0  0  0  0  0
   -0.3863   -2.6106   15.8150 C   0  0  0  0  0  0  0  0  0  0  0  0
    0.2220   -1.5829   15.0890 C   0  0  0  0  0  0  0  0  0  0  0  0
    1.5930   -1.3491   15.3060 N   0  0  0  0  0  0  0  0  0  0  0  0
    2.5452   -0.4689   14.7536 C   0  0  0  0  0  0  0  0  0  0  0  0
    2.2178    0.3551   13.7190 N   0  0  0  0  0  0  0  0  0  0  0  0
    3.1227    1.2406   13.2181 C   0  0  0  0  0  0  0  0  0  0  0  0
    4.4207    1.3039   13.7175 C   0  0  0  0  0  0  0  0  0  0  0  0
    4.7482    0.4921   14.7654 N   0  0  0  0  0  0  0  0  0  0  0  0
    5.8898    0.3836   15.5035 C   0  0  0  0  0  0  0  0  0  0  0  0
    5.5715   -0.5089   16.5177 C   0  0  0  0  0  0  0  0  0  0  0  0
    4.3818   -1.0543   16.3920 N   0  0  0  0  0  0  0  0  0  0  0  0
    3.8330   -0.4170   15.3252 C   0  0  0  0  0  0  0  0  0  0  0  0
    2.6564    2.1560   12.1340 C   0  0  0  0  0  0  0  0  0  0  0  0
    3.5566    2.6280   11.1666 C   0  0  0  0  0  0  0  0  0  0  0  0
    3.1294    3.4499   10.1277 C   0  0  0  0  0  0  0  0  0  0  0  0
    1.7879    3.8078   10.0318 C   0  0  0  0  0  0  0  0  0  0  0  0
    0.8660    3.3707   10.9895 C   0  0  0  0  0  0  0  0  0  0  0  0
    1.3140    2.5576   12.0419 C   0  0  0  0  0  0  0  0  0  0  0  0
   -0.5881    3.7303   10.8428 C   0  0  0  0  0  0  0  0  0  0  0  0
   -1.1092    3.7021    9.7263 O   0  0  0  0  0  0  0  0  0  0  0  0
   -1.2179    4.0963   11.9826 N   0  0  0  0  0  0  0  0  0  0  0  0
   -2.5548    4.5074   12.1308 C   0  0  0  0  0  0  0  0  0  0  0  0
   -3.5938    4.0626   11.3021 C   0  0  0  0  0  0  0  0  0  0  0  0
   -4.8906    4.5243   11.5030 C   0  0  0  0  0  0  0  0  0  0  0  0
   -5.1795    5.4211   12.5413 C   0  0  0  0  0  0  0  0  0  0  0  0
   -4.1385    5.8321   13.3869 C   0  0  0  0  0  0  0  0  0  0  0  0
   -2.8376    5.3818   13.1807 C   0  0  0  0  0  0  0  0  0  0  0  0
   -6.5795    5.9152   12.7554 C   0  0  0  0  0  0  0  0  0  0  0  0
   -7.8001    5.5757   12.2009 C   0  0  0  0  0  0  0  0  0  0  0  0
   -8.7342    6.4074   12.8268 C   0  0  0  0  0  0  0  0  0  0  0  0
   -8.1709    7.2095   13.7036 N   0  0  0  0  0  0  0  0  0  0  0  0
   -6.8624    6.9071   13.6570 N   0  0  0  0  0  0  0  0  0  0  0  0
   -0.5664   -0.8256   14.2115 C   0  0  0  0  0  0  0  0  0  0  0  0
   -1.9389   -1.0760   14.0580 C   0  0  0  0  0  0  0  0  0  0  0  0
   -2.7621   -0.3534   13.2116 O   0  0  0  0  0  0  0  0  0  0  0  0
   -2.2029    0.6764   12.4028 C   0  0  0  0  0  0  0  0  0  0  0  0
   -3.7319   -4.0591   13.5349 H   0  0  0  0  0  0  0  0  0  0  0  0
   -4.0488   -2.5587   12.6486 H   0  0  0  0  0  0  0  0  0  0  0  0
   -5.3256   -3.3057   13.6062 H   0  0  0  0  0  0  0  0  0  0  0  0
   -2.2115   -3.6525   16.2595 H   0  0  0  0  0  0  0  0  0  0  0  0
    0.1907   -3.2107   16.5029 H   0  0  0  0  0  0  0  0  0  0  0  0
    2.0263   -1.8894   16.0446 H   0  0  0  0  0  0  0  0  0  0  0  0
    5.1725    2.0000   13.3704 H   0  0  0  0  0  0  0  0  0  0  0  0
    6.7667    0.9724   15.2895 H   0  0  0  0  0  0  0  0  0  0  0  0
    6.2096   -0.8335   17.3296 H   0  0  0  0  0  0  0  0  0  0  0  0
    4.5932    2.3291   11.1982 H   0  0  0  0  0  0  0  0  0  0  0  0
    3.8321    3.7889    9.3800 H   0  0  0  0  0  0  0  0  0  0  0  0
    1.4532    4.4207    9.2055 H   0  0  0  0  0  0  0  0  0  0  0  0
    0.6102    2.1883   12.7736 H   0  0  0  0  0  0  0  0  0  0  0  0
   -0.6256    4.1766   12.7928 H   0  0  0  0  0  0  0  0  0  0  0  0
   -3.4137    3.3677   10.4946 H   0  0  0  0  0  0  0  0  0  0  0  0
   -5.6833    4.1870   10.8507 H   0  0  0  0  0  0  0  0  0  0  0  0
   -4.3476    6.5138   14.1986 H   0  0  0  0  0  0  0  0  0  0  0  0
   -2.0539    5.7265   13.8396 H   0  0  0  0  0  0  0  0  0  0  0  0
   -7.9941    4.8267   11.4440 H   0  0  0  0  0  0  0  0  0  0  0  0
   -9.8018    6.4182   12.6378 H   0  0  0  0  0  0  0  0  0  0  0  0
   -6.1655    7.3743   14.2366 H   0  0  0  0  0  0  0  0  0  0  0  0
   -0.1266   -0.0266   13.6477 H   0  0  0  0  0  0  0  0  0  0  0  0
   -1.4235    0.2925   11.7430 H   0  0  0  0  0  0  0  0  0  0  0  0
   -1.7941    1.4768   13.0196 H   0  0  0  0  0  0  0  0  0  0  0  0
   -2.9831    1.1078   11.7761 H   0  0  0  0  0  0  0  0  0  0  0  0
  1  2  1  0
  1 41  1  0
  1 42  1  0
  1 43  1  0
  2  3  1  0
  3  4  2  0
  3 38  1  0
  4  5  1  0
  4 44  1  0
  5  6  2  0
  5 45  1  0
  6  7  1  0
  6 37  1  0
  7  8  1  0
  7 46  1  0
  8  9  2  0
  8 16  1  0
  9 10  1  0
 10 11  2  0
 10 17  1  0
 11 12  1  0
 11 47  1  0
 12 13  1  0
 12 16  1  0
 13 14  2  0
 13 48  1  0
 14 15  1  0
 14 49  1  0
 15 16  2  0
 17 18  2  0
 17 22  1  0
 18 19  1  0
 18 50  1  0
 19 20  2  0
 19 51  1  0
 20 21  1  0
 20 52  1  0
 21 22  2  0
 21 23  1  0
 22 53  1  0
 23 24  2  0
 23 25  1  0
 25 26  1  0
 25 54  1  0
 26 27  2  0
 26 31  1  0
 27 28  1  0
 27 55  1  0
 28 29  2  0
 28 56  1  0
 29 30  1  0
 29 32  1  0
 30 31  2  0
 30 57  1  0
 31 58  1  0
 32 36  1  0
 32 33  2  0
 33 34  1  0
 33 59  1  0
 34 60  1  0
 34 35  2  0
 35 36  1  0
 36 61  1  0
 37 38  2  0
 37 62  1  0
 38 39  1  0
 39 40  1  0
 40 63  1  0
 40 64  1  0
 40 65  1  0
M  END
>  <IC50[nM]>  (41) 
11.699999999999999

>  <atom.dprop.PartialCharge>  (41) 
0.11275582 -0.3242611 0.0845564 -0.14451458 -0.11598712 0.12817574 -0.69669354 0.61512893 -0.61846423 0.16915937 -0.11969473 -0.063364044 -0.2883624 0.32801014 -0.62440455 0.26779622 -0.07441806 -0.078762256 -0.13723792 -0.095640704 -0.1446673 -0.07364186 0.68436724 -0.57190067 -0.4880695 0.06964785 -0.15232098 -0.0896052 -0.044938765 -0.0896052 -0.15232098 -0.056054097 -0.2819448 0.29424676 -0.51217246 -0.02708837 -0.123542175 0.08300279 -0.3307868 0.11792502 0.04538137 0.04538137 0.04538137 0.14428985 0.14464888 0.44169265 0.17766276 0.18174997 0.051530078 0.1406608 0.14064142 0.14462745 0.15439251 0.31551617 0.14391278 0.14295255 0.14295255 0.14391278 0.16938654 0.044606067 0.32683775 0.14981037 0.042588092 0.042588092 0.042588092

>  <experimental dG reference units>  (41) 
nM

>  <experimental dG reference field>  (41) 
IC50[nM]

>  <kJ/mol experimental dG>  (41) 
-45.55606414425651

>  <kcal/mol experimental dG>  (41) 
-10.888160646332818

>  <AmberAM1BCCCache>  (41) 
gASVLgUAAAAAAABdlCiMFm51bXB5Ll9jb3JlLm11bHRpYXJyYXmUjAZzY2FsYXKUk5SMBW51bXB5lIwFZHR5cGWUk5SMAmY4lImIh5RSlChLA4wBPJROTk5K/////0r/////SwB0lGJDCODypjLY3/Q/lIaUUpRoA2gJQwiAgW00XZAMwJSGlFKUaANoCUMIlpnd2DxP8j+UhpRSlGgDaAlDCN//zU22tP6/lIaUUpRoA2gJQwiKf7qIJ535v5SGlFKUaANoCUMI2qSkjnb89z+UhpRSlGgDaAlDCL6+IBCbpiDAlIaUUpRoA2gJQwgzvQD+4rEgQJSGlFKUaANoCUMIt2x5QqxeIcCUhpRSlGgDaAlDCLYO4s8ZWRVAlIaUUpRoA2gJQwiB6Xwg8lQEwJSGlFKUaANoCUMIfvcAgwCx3j+UhpRSlGgDaAlDCN/46TwJuAPAlIaUUpRoA2gJQwhb+6PUSCedv5SGlFKUaANoCUMI2reSieJPBsCUhpRSlGgDaAlDCLVFC8t8pwDAlIaUUpRoA2gJQwi0qvPzOu/5v5SGlFKUaANoCUMIrOaVbI2n6b+UhpRSlGgDaAlDCGyVIWp9yPq/lIaUUpRoA2gJQwh7ZdJ0LHzyv5SGlFKUaANoCUMI4zN6EKKh/L+UhpRSlGgDaAlDCMLThQ6saOq/lIaUUpRoA2gJQwjcDOaf9REgQJSGlFKUaANoCUMI6q0BCBVJG8CUhpRSlGgDaAlDCIT8T2rMGxbAlIaUUpRoA2gJQwgg4s9XHqTtP5SGlFKUaANoCUMI4a50JuDk/7+UhpRSlGgDaAlDCKyNtFzL4fC/lIaUUpRoA2gJQwhbmi5q6nziv5SGlFKUaANoCUMIrI20XMvh8L+UhpRSlGgDaAlDCOGudCbg5P+/lIaUUpRoA2gJQwi/FJQokLvjv5SGlFKUaANoCUMIbK7Tc7TFCsCUhpRSlGgDaAlDCJE1yUdbcAtAlIaUUpRoA2gJQwjYFhXELx8YwJSGlFKUaANoCUMInwH5GMb0xr+UhpRSlGgDaAlDCD88AxwMCAHAlIaUUpRoA2gJQwg82xJ9PtH1P5SGlFKUaANoCUMIxnzp3KTADMCUhpRSlGgDaAlDCJv3KoqQr/Q/lIaUUpRoA2gJQwhgX2g0LnrgP5SGlFKUaANoCUMIYF9oNC564D+UhpRSlGgDaAlDCGBfaDQueuA/lIaUUpRoA2gJQwhmMO3WuZb6P5SGlFKUaANoCUMI3Tn1hSo2+j+UhpRSlGgDaAlDCP0jtFnXfxRAlIaUUpRoA2gJQwgyE3EBm44AQJSGlFKUaANoCUMIFSnY4vC5AUCUhpRSlGgDaAlDCM8tXDqpiQFAlIaUUpRoA2gJQwh56TC27Gr9P5SGlFKUaANoCUMIrCtpfwHH+j+UhpRSlGgDaAlDCJc+ed3iBfo/lIaUUpRoA2gJQwi/5KxeNJv9P5SGlFKUaANoCUMITovvXywlDkCUhpRSlGgDaAlDCA6MeFwxD/0/lIaUUpRoA2gJQwjUp/sR6+j5P5SGlFKUaANoCUMI1Kf7Eevo+T+UhpRSlGgDaAlDCA6MeFwxD/0/lIaUUpRoA2gJQwiwVQpuaTr/P5SGlFKUaANoCUMInHbqmF6/3z+UhpRSlGgDaAlDCO2/MHqwFg5AlIaUUpRoA2gJQwiTCs0a9xj8P5SGlFKUaANoCUMIi56mDeX64D+UhpRSlGgDaAlDCIuepg3l+uA/lIaUUpRoA2gJQwiLnqYN5frgP5SGlFKUZS4=

$$$$
CHEMBL3265004
     RDKit          3D

 65 70  0  0  0  0  0  0  0  0999 V2000
   -4.2555   -3.1029   13.5707 C   0  0  0  0  0  0  0  0  0  0  0  0
   -3.8740   -2.3535   14.7166 O   0  0  0  0  0  0  0  0  0  0  0  0
   -2.5261   -2.1057   14.8053 C   0  0  0  0  0  0  0  0  0  0  0  0
   -1.7497   -2.8673   15.6804 C   0  0  0  0  0  0  0  0  0  0  0  0
   -0.3863   -2.6106   15.8150 C   0  0  0  0  0  0  0  0  0  0  0  0
    0.2220   -1.5829   15.0890 C   0  0  0  0  0  0  0  0  0  0  0  0
    1.5930   -1.3491   15.3060 N   0  0  0  0  0  0  0  0  0  0  0  0
    2.5452   -0.4689   14.7536 C   0  0  0  0  0  0  0  0  0  0  0  0
    2.2178    0.3551   13.7190 N   0  0  0  0  0  0  0  0  0  0  0  0
    3.1227    1.2406   13.2181 C   0  0  0  0  0  0  0  0  0  0  0  0
    4.4207    1.3039   13.7175 C   0  0  0  0  0  0  0  0  0  0  0  0
    4.7482    0.4921   14.7654 N   0  0  0  0  0  0  0  0  0  0  0  0
    5.8898    0.3836   15.5035 C   0  0  0  0  0  0  0  0  0  0  0  0
    5.5715   -0.5089   16.5177 C   0  0  0  0  0  0  0  0  0  0  0  0
    4.3818   -1.0543   16.3920 N   0  0  0  0  0  0  0  0  0  0  0  0
    3.8330   -0.4170   15.3252 C   0  0  0  0  0  0  0  0  0  0  0  0
    2.6564    2.1560   12.1340 C   0  0  0  0  0  0  0  0  0  0  0  0
    3.5566    2.6280   11.1666 C   0  0  0  0  0  0  0  0  0  0  0  0
    3.1294    3.4499   10.1277 C   0  0  0  0  0  0  0  0  0  0  0  0
    1.7879    3.8078   10.0318 C   0  0  0  0  0  0  0  0  0  0  0  0
    0.8660    3.3707   10.9895 C   0  0  0  0  0  0  0  0  0  0  0  0
    1.3140    2.5576   12.0419 C   0  0  0  0  0  0  0  0  0  0  0  0
   -0.5783    3.7648   10.8956 C   0  0  0  0  0  0  0  0  0  0  0  0
   -1.2780    3.6594    9.8925 O   0  0  0  0  0  0  0  0  0  0  0  0
   -1.0343    4.2553   12.0485 N   0  0  0  0  0  0  0  0  0  0  0  0
   -2.3943    4.7285   12.2897 C   0  0  0  0  0  0  0  0  0  0  0  0
   -2.6544    5.5820   13.3553 C   0  0  0  0  0  0  0  0  0  0  0  0
   -3.9490    6.0325   13.5849 C   0  0  0  0  0  0  0  0  0  0  0  0
   -4.9835    5.6294   12.7489 C   0  0  0  0  0  0  0  0  0  0  0  0
   -4.7235    4.7759   11.6833 C   0  0  0  0  0  0  0  0  0  0  0  0
   -3.4289    4.3254   11.4537 C   0  0  0  0  0  0  0  0  0  0  0  0
   -6.3808    6.1155   12.9967 C   0  0  0  0  0  0  0  0  0  0  0  0
   -7.5270    5.8082   12.2567 C   0  0  0  0  0  0  0  0  0  0  0  0
   -8.5983    6.3994   12.7385 N   0  0  0  0  0  0  0  0  0  0  0  0
   -8.1591    7.0985   13.7988 N   0  0  0  0  0  0  0  0  0  0  0  0
   -6.8114    6.9611   14.0027 C   0  0  0  0  0  0  0  0  0  0  0  0
   -0.5664   -0.8256   14.2115 C   0  0  0  0  0  0  0  0  0  0  0  0
   -1.9389   -1.0760   14.0580 C   0  0  0  0  0  0  0  0  0  0  0  0
   -2.6991   -0.3052   13.2021 O   0  0  0  0  0  0  0  0  0  0  0  0
   -2.0020    0.6746   12.5251 C   0  0  0  0  0  0  0  0  0  0  0  0
   -3.7528   -4.0708   13.5508 H   0  0  0  0  0  0  0  0  0  0  0  0
   -4.0179   -2.5675   12.6505 H   0  0  0  0  0  0  0  0  0  0  0  0
   -5.3306   -3.2808   13.5889 H   0  0  0  0  0  0  0  0  0  0  0  0
   -2.2100   -3.6528   16.2607 H   0  0  0  0  0  0  0  0  0  0  0  0
    0.1911   -3.2101   16.5029 H   0  0  0  0  0  0  0  0  0  0  0  0
    2.0246   -1.8858   16.0475 H   0  0  0  0  0  0  0  0  0  0  0  0
    5.1701    2.0030   13.3719 H   0  0  0  0  0  0  0  0  0  0  0  0
    6.7656    0.9739   15.2897 H   0  0  0  0  0  0  0  0  0  0  0  0
    6.2089   -0.8330   17.3301 H   0  0  0  0  0  0  0  0  0  0  0  0
    4.5934    2.3309   11.2002 H   0  0  0  0  0  0  0  0  0  0  0  0
    3.8342    3.7939    9.3845 H   0  0  0  0  0  0  0  0  0  0  0  0
    1.4564    4.4350    9.2166 H   0  0  0  0  0  0  0  0  0  0  0  0
    0.6053    2.2130   12.7811 H   0  0  0  0  0  0  0  0  0  0  0  0
   -0.4948    4.3595   12.8959 H   0  0  0  0  0  0  0  0  0  0  0  0
   -1.8489    5.8959   14.0061 H   0  0  0  0  0  0  0  0  0  0  0  0
   -4.1515    6.6970   14.4145 H   0  0  0  0  0  0  0  0  0  0  0  0
   -5.5289    4.4620   11.0325 H   0  0  0  0  0  0  0  0  0  0  0  0
   -3.2264    3.6609   10.6241 H   0  0  0  0  0  0  0  0  0  0  0  0
   -7.5663    5.1644   11.3851 H   0  0  0  0  0  0  0  0  0  0  0  0
   -8.7747    7.6664   14.3806 H   0  0  0  0  0  0  0  0  0  0  0  0
   -6.3056    7.4629   14.8185 H   0  0  0  0  0  0  0  0  0  0  0  0
   -0.1547   -0.0168   13.6337 H   0  0  0  0  0  0  0  0  0  0  0  0
   -2.6851    1.2257   11.8787 H   0  0  0  0  0  0  0  0  0  0  0  0
   -1.2218    0.2131   11.9198 H   0  0  0  0  0  0  0  0  0  0  0  0
   -1.5485    1.3591   13.2420 H   0  0  0  0  0  0  0  0  0  0  0  0
  1  2  1  0
  1 41  1  0
  1 42  1  0
  1 43  1  0
  2  3  1  0
  3  4  2  0
  3 38  1  0
  4  5  1  0
  4 44  1  0
  5  6  2  0
  5 45  1  0
  6  7  1  0
  6 37  1  0
  7  8  1  0
  7 46  1  0
  8  9  2  0
  8 16  1  0
  9 10  1  0
 10 11  2  0
 10 17  1  0
 11 12  1  0
 11 47  1  0
 12 13  1  0
 12 16  1  0
 13 14  2  0
 13 48  1  0
 14 15  1  0
 14 49  1  0
 15 16  2  0
 17 18  2  0
 17 22  1  0
 18 19  1  0
 18 50  1  0
 19 20  2  0
 19 51  1  0
 20 21  1  0
 20 52  1  0
 21 22  2  0
 21 23  1  0
 22 53  1  0
 23 24  2  0
 23 25  1  0
 25 26  1  0
 25 54  1  0
 26 27  2  0
 26 31  1  0
 27 28  1  0
 27 55  1  0
 28 29  2  0
 28 56  1  0
 29 30  1  0
 29 32  1  0
 30 31  2  0
 30 57  1  0
 31 58  1  0
 32 33  1  0
 32 36  2  0
 33 34  2  0
 33 59  1  0
 34 35  1  0
 35 36  1  0
 35 60  1  0
 36 61  1  0
 37 38  2  0
 37 62  1  0
 38 39  1  0
 39 40  1  0
 40 63  1  0
 40 64  1  0
 40 65  1  0
M  END
>  <IC50[nM]>  (42) 
11

>  <atom.dprop.PartialCharge>  (42) 
0.11268677 -0.32433015 0.084487356 -0.14458363 -0.116056174 0.1281067 -0.6967626 0.61505985 -0.6185333 0.16909033 -0.119763784 -0.063433096 -0.28843147 0.3279411 -0.62447363 0.26772717 -0.07448711 -0.0788313 -0.13730697 -0.095709756 -0.14473635 -0.0737109 0.6842982 -0.5719697 -0.488192 0.05480215 -0.14825061 -0.10101099 -0.02449495 -0.10101099 -0.14825061 -0.21313359 0.3113705 -0.5100744 -0.023821343 -0.12914531 -0.12361123 0.08293375 -0.33085588 0.117855966 0.04531232 0.04531232 0.04531232 0.1442208 0.14457983 0.4416236 0.17759371 0.1816809 0.051461026 0.14059174 0.14057237 0.1445584 0.15432346 0.31544712 0.14015529 0.13730976 0.13730976 0.14015529 0.04695717 0.3263724 0.18046471 0.14974132 0.04251904 0.04251904 0.04251904

>  <experimental dG reference units>  (42) 
nM

>  <experimental dG reference field>  (42) 
IC50[nM]

>  <kJ/mol experimental dG>  (42) 
-45.70994970561652

>  <kcal/mol experimental dG>  (42) 
-10.924940178206626

>  <AmberAM1BCCCache>  (42) 
gASVLgUAAAAAAABdlCiMFm51bXB5Ll9jb3JlLm11bHRpYXJyYXmUjAZzY2FsYXKUk5SMBW51bXB5lIwFZHR5cGWUk5SMAmY4lImIh5RSlChLA4wBPJROTk5K/////0r/////SwB0lGJDCF4ekIQc3vQ/lIaUUpRoA2gJQwjB63gLO5EMwJSGlFKUaANoCUMIzslKgjkd8j+UhpRSlGgDaAlDCFwL6EHSj/6/lIaUUpRoA2gJQwhOhlAli6j5v5SGlFKUaANoCUMI2zSMvQoO+D+UhpRSlGgDaAlDCE6Z44XSpiDAlIaUUpRoA2gJQwg5Yy6ToqsgQJSGlFKUaANoCUMIvS7tywZUIcCUhpRSlGgDaAlDCGdYe868ZBVAlIaUUpRoA2gJQwjCU4j3z1UEwJSGlFKUaANoCUMIdqWlyhGq3j+UhpRSlGgDaAlDCB9j9RPnuAPAlIaUUpRoA2gJQwjaG1laNJadv5SGlFKUaANoCUMIvh/cNORoBsCUhpRSlGgDaAlDCPavFqJaqADAlIaUUpRoA2gJQwjBdQLzhVH6v5SGlFKUaANoCUMIPIa7GZQL6r+UhpRSlGgDaAlDCO5pOBg5yvq/lIaUUpRoA2gJQwj+Oeki6H3yv5SGlFKUaANoCUMI3tqVJ25p/L+UhpRSlGgDaAlDCFFzq7uyzOq/lIaUUpRoA2gJQwh7MwRArAUgQJSGlFKUaANoCUMIoPgjqY1yG8CUhpRSlGgDaAlDCJKAN32BBhbAlIaUUpRoA2gJQwiCvRKO0FjoP5SGlFKUaANoCUMIiv8dZ4UI/7+UhpRSlGgDaAlDCCouH0ib9vK/lIaUUpRoA2gJQwjR7ZVZoTfIv5SGlFKUaANoCUMIKi4fSJv28r+UhpRSlGgDaAlDCIr/HWeFCP+/lIaUUpRoA2gJQwjlE8nAVMwCwJSGlFKUaANoCUMIPTwbgLIODUCUhpRSlGgDaAlDCPyUl2k+RhjAlIaUUpRoA2gJQwhj83AESVXQv5SGlFKUaANoCUMI9UyLs07n+b+UhpRSlGgDaAlDCMHYjeGREgHAlIaUUpRoA2gJQwg7a/qr0uL1P5SGlFKUaANoCUMIB+f0s4LBDMCUhpRSlGgDaAlDCBkjFNzUrfQ/lIaUUpRoA2gJQwhctjrYtnbgP5SGlFKUaANoCUMIXLY62LZ24D+UhpRSlGgDaAlDCFy2Oti2duA/lIaUUpRoA2gJQwjkW9Yo/pT6P5SGlFKUaANoCUMIW2Xe1240+j+UhpRSlGgDaAlDCKZvxHxcdxRAlIaUUpRoA2gJQwgz2+QYZZcAQJSGlFKUaANoCUMI1L7MCxO5AUCUhpRSlGgDaAlDCI/DUGPLiAFAlIaUUpRoA2gJQwiyGZ5f6Tj9P5SGlFKUaANoCUMI5FvWKP6U+j+UhpRSlGgDaAlDCBVqYi8nBPo/lIaUUpRoA2gJQwg9EJaweJn9P5SGlFKUaANoCUMISopmvVYHDkCUhpRSlGgDaAlDCFYxMhWDR/w/lIaUUpRoA2gJQwgXhLgQnfr4P5SGlFKUaANoCUMIF4S4EJ36+D+UhpRSlGgDaAlDCFYxMhWDR/w/lIaUUpRoA2gJQwjsdS/j5f3gP5SGlFKUaANoCUMIUxxgMZZUDkCUhpRSlGgDaAlDCDPb5BhllwBAlIaUUpRoA2gJQwgRNrZsOxf8P5SGlFKUaANoCUMIh/V4sW334D+UhpRSlGgDaAlDCIf1eLFt9+A/lIaUUpRoA2gJQwiH9XixbffgP5SGlFKUZS4=

$$$$
CHEMBL3265001
     RDKit          3D

 62 67  0  0  0  0  0  0  0  0999 V2000
   -4.2555   -3.1029   13.5707 C   0  0  0  0  0  0  0  0  0  0  0  0
   -3.8740   -2.3535   14.7166 O   0  0  0  0  0  0  0  0  0  0  0  0
   -2.5261   -2.1057   14.8053 C   0  0  0  0  0  0  0  0  0  0  0  0
   -1.7497   -2.8673   15.6804 C   0  0  0  0  0  0  0  0  0  0  0  0
   -0.3863   -2.6106   15.8150 C   0  0  0  0  0  0  0  0  0  0  0  0
    0.2220   -1.5829   15.0890 C   0  0  0  0  0  0  0  0  0  0  0  0
    1.5930   -1.3491   15.3060 N   0  0  0  0  0  0  0  0  0  0  0  0
    2.5452   -0.4689   14.7536 C   0  0  0  0  0  0  0  0  0  0  0  0
    2.2178    0.3551   13.7190 N   0  0  0  0  0  0  0  0  0  0  0  0
    3.1227    1.2406   13.2181 C   0  0  0  0  0  0  0  0  0  0  0  0
    4.4207    1.3039   13.7175 C   0  0  0  0  0  0  0  0  0  0  0  0
    4.7482    0.4921   14.7654 N   0  0  0  0  0  0  0  0  0  0  0  0
    5.8898    0.3836   15.5035 C   0  0  0  0  0  0  0  0  0  0  0  0
    5.5715   -0.5089   16.5177 C   0  0  0  0  0  0  0  0  0  0  0  0
    4.3818   -1.0543   16.3920 N   0  0  0  0  0  0  0  0  0  0  0  0
    3.8330   -0.4170   15.3252 C   0  0  0  0  0  0  0  0  0  0  0  0
    2.6564    2.1560   12.1340 C   0  0  0  0  0  0  0  0  0  0  0  0
    3.5566    2.6280   11.1666 C   0  0  0  0  0  0  0  0  0  0  0  0
    3.1294    3.4499   10.1277 C   0  0  0  0  0  0  0  0  0  0  0  0
    1.7879    3.8078   10.0318 C   0  0  0  0  0  0  0  0  0  0  0  0
    0.8660    3.3707   10.9895 C   0  0  0  0  0  0  0  0  0  0  0  0
    1.3140    2.5576   12.0419 C   0  0  0  0  0  0  0  0  0  0  0  0
   -0.5783    3.7648   10.8956 C   0  0  0  0  0  0  0  0  0  0  0  0
   -1.2780    3.6594    9.8925 O   0  0  0  0  0  0  0  0  0  0  0  0
   -1.0343    4.2553   12.0485 N   0  0  0  0  0  0  0  0  0  0  0  0
   -2.3943    4.7285   12.2897 C   0  0  0  0  0  0  0  0  0  0  0  0
   -2.6544    5.5820   13.3553 C   0  0  0  0  0  0  0  0  0  0  0  0
   -3.9490    6.0325   13.5849 C   0  0  0  0  0  0  0  0  0  0  0  0
   -4.9835    5.6294   12.7489 C   0  0  0  0  0  0  0  0  0  0  0  0
   -4.7235    4.7759   11.6833 C   0  0  0  0  0  0  0  0  0  0  0  0
   -3.4289    4.3254   11.4537 C   0  0  0  0  0  0  0  0  0  0  0  0
   -6.3808    6.1155   12.9967 C   0  0  0  0  0  0  0  0  0  0  0  0
   -7.4427    5.4157   12.6869 N   0  0  0  0  0  0  0  0  0  0  0  0
   -8.5101    6.1905   13.0642 N   0  0  0  0  0  0  0  0  0  0  0  0
   -8.0145    7.3480   13.5959 N   0  0  0  0  0  0  0  0  0  0  0  0
   -6.6463    7.2766   13.5417 N   0  0  0  0  0  0  0  0  0  0  0  0
   -0.5664   -0.8256   14.2115 C   0  0  0  0  0  0  0  0  0  0  0  0
   -1.9389   -1.0760   14.0580 C   0  0  0  0  0  0  0  0  0  0  0  0
   -2.6991   -0.3052   13.2021 O   0  0  0  0  0  0  0  0  0  0  0  0
   -2.0020    0.6746   12.5251 C   0  0  0  0  0  0  0  0  0  0  0  0
   -3.7528   -4.0708   13.5508 H   0  0  0  0  0  0  0  0  0  0  0  0
   -4.0179   -2.5675   12.6505 H   0  0  0  0  0  0  0  0  0  0  0  0
   -5.3306   -3.2808   13.5889 H   0  0  0  0  0  0  0  0  0  0  0  0
   -2.2100   -3.6528   16.2607 H   0  0  0  0  0  0  0  0  0  0  0  0
    0.1911   -3.2101   16.5029 H   0  0  0  0  0  0  0  0  0  0  0  0
    2.0246   -1.8858   16.0475 H   0  0  0  0  0  0  0  0  0  0  0  0
    5.1701    2.0030   13.3719 H   0  0  0  0  0  0  0  0  0  0  0  0
    6.7656    0.9739   15.2897 H   0  0  0  0  0  0  0  0  0  0  0  0
    6.2089   -0.8330   17.3301 H   0  0  0  0  0  0  0  0  0  0  0  0
    4.5934    2.3309   11.2002 H   0  0  0  0  0  0  0  0  0  0  0  0
    3.8342    3.7939    9.3845 H   0  0  0  0  0  0  0  0  0  0  0  0
    1.4564    4.4350    9.2166 H   0  0  0  0  0  0  0  0  0  0  0  0
    0.6053    2.2130   12.7811 H   0  0  0  0  0  0  0  0  0  0  0  0
   -0.4948    4.3595   12.8959 H   0  0  0  0  0  0  0  0  0  0  0  0
   -1.8489    5.8959   14.0061 H   0  0  0  0  0  0  0  0  0  0  0  0
   -4.1515    6.6970   14.4145 H   0  0  0  0  0  0  0  0  0  0  0  0
   -5.5289    4.4620   11.0325 H   0  0  0  0  0  0  0  0  0  0  0  0
   -3.2264    3.6609   10.6241 H   0  0  0  0  0  0  0  0  0  0  0  0
   -0.1547   -0.0168   13.6337 H   0  0  0  0  0  0  0  0  0  0  0  0
   -2.6851    1.2257   11.8787 H   0  0  0  0  0  0  0  0  0  0  0  0
   -1.2218    0.2131   11.9198 H   0  0  0  0  0  0  0  0  0  0  0  0
   -1.5485    1.3591   13.2420 H   0  0  0  0  0  0  0  0  0  0  0  0
  1  2  1  0
  1 41  1  0
  1 42  1  0
  1 43  1  0
  2  3  1  0
  3  4  2  0
  3 38  1  0
  4  5  1  0
  4 44  1  0
  5  6  2  0
  5 45  1  0
  6  7  1  0
  6 37  1  0
  7  8  1  0
  7 46  1  0
  8  9  2  0
  8 16  1  0
  9 10  1  0
 10 11  2  0
 10 17  1  0
 11 12  1  0
 11 47  1  0
 12 13  1  0
 12 16  1  0
 13 14  2  0
 13 48  1  0
 14 15  1  0
 14 49  1  0
 15 16  2  0
 17 18  2  0
 17 22  1  0
 18 19  1  0
 18 50  1  0
 19 20  2  0
 19 51  1  0
 20 21  1  0
 20 52  1  0
 21 22  2  0
 21 23  1  0
 22 53  1  0
 23 24  2  0
 23 25  1  0
 25 26  1  0
 25 54  1  0
 26 27  2  0
 26 31  1  0
 27 28  1  0
 27 55  1  0
 28 29  2  0
 28 56  1  0
 29 30  1  0
 29 32  1  0
 30 31  2  0
 30 57  1  0
 31 58  1  0
 32 36  2  0
 32 33  1  0
 33 34  1  0
 34 35  2  0
 35 36  1  0
 37 38  2  0
 37 59  1  0
 38 39  1  0
 39 40  1  0
 40 60  1  0
 40 61  1  0
 40 62  1  0
M  CHG  1  33  -1
M  END
>  <IC50[nM]>  (43) 
1.5

>  <atom.dprop.PartialCharge>  (43) 
0.109783284 -0.32723403 0.08158393 -0.14748733 -0.11895974 0.12520337 -0.69966733 0.6121564 -0.62143767 0.16618723 -0.122667454 -0.06633671 -0.29133528 0.32503796 -0.6273783 0.26482368 -0.07739069 -0.08173473 -0.14021058 -0.098613255 -0.14764006 -0.07661444 0.68139434 -0.5748734 -0.4953827 0.03202223 -0.14933676 -0.119895495 -0.0001350008 -0.119895495 -0.14933676 0.3725342 -0.42145607 -0.17470588 -0.17470588 -0.42145607 -0.12651491 0.080030315 -0.33375978 0.114952505 0.042408746 0.042408746 0.042408746 0.14131713 0.14167613 0.43872 0.17469004 0.1787772 0.048557438 0.13768803 0.13766862 0.1416547 0.15141979 0.31254366 0.117894225 0.15352042 0.15352042 0.117894225 0.14683762 0.039615475 0.039615475 0.039615475

>  <experimental dG reference units>  (43) 
nM

>  <experimental dG reference field>  (43) 
IC50[nM]

>  <kJ/mol experimental dG>  (43) 
-50.67977458861892

>  <kcal/mol experimental dG>  (43) 
-12.112756832843909

>  <AmberAM1BCCCache>  (43) 
gASV9QQAAAAAAABdlCiMFm51bXB5Ll9jb3JlLm11bHRpYXJyYXmUjAZzY2FsYXKUk5SMBW51bXB5lIwFZHR5cGWUk5SMAmY4lImIh5RSlChLA4wBPJROTk5K/////0r/////SwB0lGJDCF5XS8l2D/U/lIaUUpRoA2gJQwjNRRM6HdkMwJSGlFKUaANoCUMIjDs24TcL8D+UhpRSlGgDaAlDCAHqwLIRbf2/lIaUUpRoA2gJQwg0LPl7Jsn6v5SGlFKUaANoCUMIkj4flzEi+j+UhpRSlGgDaAlDCPOzHV6MjiDAlIaUUpRoA2gJQwiUVZ+rIz8gQJSGlFKUaANoCUMITE+MEWf/IMCUhpRSlGgDaAlDCEkk6DM3iRVAlIaUUpRoA2gJQwhyxbbbS6wDwJSGlFKUaANoCUMIdomS3Xpv3z+UhpRSlGgDaAlDCEPE1cVduAPAlIaUUpRoA2gJQwivPKFxTWazv5SGlFKUaANoCUMIsXIw4DH5BsCUhpRSlGgDaAlDCDEYPddlXwDAlIaUUpRoA2gJQwgDBBeUh2P8v5SGlFKUaANoCUMISpncrCaQ7r+UhpRSlGgDaAlDCI8UZcaMuvu/lIaUUpRoA2gJQwj9AC7ejUzyv5SGlFKUaANoCUMInNoK/bf0+b+UhpRSlGgDaAlDCP8/E1OL/+u/lIaUUpRoA2gJQwggSEdvkFYfQJSGlFKUaANoCUMIdxfluVUnHMCUhpRSlGgDaAlDCHNY89M5ehXAlIaUUpRoA2gJQwixjPAKln2Yv5SGlFKUaANoCUMIjOC4A6HN/b+UhpRSlGgDaAlDCDp6+x+IrPe/lIaUUpRoA2gJQwg8lGrjOpfwP5SGlFKUaANoCUMIOnr7H4is97+UhpRSlGgDaAlDCIzguAOhzf2/lIaUUpRoA2gJQwi+yC2VbaoHQJSGlFKUaANoCUMI6ntRZCAQFMCUhpRSlGgDaAlDCIpRAkmiIADAlIaUUpRoA2gJQwiKUQJJoiAAwJSGlFKUaANoCUMI6ntRZCAQFMCUhpRSlGgDaAlDCOQfGLKSGwLAlIaUUpRoA2gJQwg8pLXwLBT2P5SGlFKUaANoCUMIEkGP4mQJDcCUhpRSlGgDaAlDCBhczyAv3/Q/lIaUUpRoA2gJQwh2iZLdem/fP5SGlFKUaANoCUMIdomS3Xpv3z+UhpRSlGgDaAlDCHaJkt16b98/lIaUUpRoA2gJQwhanpkcyWX6P5SGlFKUaANoCUMI5JSRbVjG+j+UhpRSlGgDaAlDCGNFhJhBNxRAlIaUUpRoA2gJQwiDabY06UABQJSGlFKUaANoCUMI9lhoAuTpAUCUhpRSlGgDaAlDCOBreGDFKAFAlIaUUpRoA2gJQwj6gYEPd4f7P5SGlFKUaANoCUMI/7Ut0mJ0+T+UhpRSlGgDaAlDCG+Lib7nJvs/lIaUUpRoA2gJQwj3TdVMi5r9P5SGlFKUaANoCUMIhkWeGDLmDECUhpRSlGgDaAlDCF3SRd+0Uvg/lIaUUpRoA2gJQwj5ZysuAZH8P5SGlFKUaANoCUMI+WcrLgGR/D+UhpRSlGgDaAlDCF3SRd+0Uvg/lIaUUpRoA2gJQwhAff23vrf7P5SGlFKUaANoCUMIMelyiLRY4D+UhpRSlGgDaAlDCDHpcoi0WOA/lIaUUpRoA2gJQwgx6XKItFjgP5SGlFKUZS4=

$$$$
CHEMBL3265000
     RDKit          3D

 67 71  0  0  0  0  0  0  0  0999 V2000
   -4.2555   -3.1029   13.5707 C   0  0  0  0  0  0  0  0  0  0  0  0
   -3.8740   -2.3535   14.7166 O   0  0  0  0  0  0  0  0  0  0  0  0
   -2.5261   -2.1057   14.8053 C   0  0  0  0  0  0  0  0  0  0  0  0
   -1.7497   -2.8673   15.6804 C   0  0  0  0  0  0  0  0  0  0  0  0
   -0.3863   -2.6106   15.8150 C   0  0  0  0  0  0  0  0  0  0  0  0
    0.2220   -1.5829   15.0890 C   0  0  0  0  0  0  0  0  0  0  0  0
    1.5930   -1.3491   15.3060 N   0  0  0  0  0  0  0  0  0  0  0  0
    2.5452   -0.4689   14.7536 C   0  0  0  0  0  0  0  0  0  0  0  0
    2.2178    0.3551   13.7190 N   0  0  0  0  0  0  0  0  0  0  0  0
    3.1227    1.2406   13.2181 C   0  0  0  0  0  0  0  0  0  0  0  0
    4.4207    1.3039   13.7175 C   0  0  0  0  0  0  0  0  0  0  0  0
    4.7482    0.4921   14.7654 N   0  0  0  0  0  0  0  0  0  0  0  0
    5.8898    0.3836   15.5035 C   0  0  0  0  0  0  0  0  0  0  0  0
    5.5715   -0.5089   16.5177 C   0  0  0  0  0  0  0  0  0  0  0  0
    4.3818   -1.0543   16.3920 N   0  0  0  0  0  0  0  0  0  0  0  0
    3.8330   -0.4170   15.3252 C   0  0  0  0  0  0  0  0  0  0  0  0
    2.6564    2.1560   12.1340 C   0  0  0  0  0  0  0  0  0  0  0  0
    3.5566    2.6280   11.1666 C   0  0  0  0  0  0  0  0  0  0  0  0
    3.1294    3.4499   10.1277 C   0  0  0  0  0  0  0  0  0  0  0  0
    1.7879    3.8078   10.0318 C   0  0  0  0  0  0  0  0  0  0  0  0
    0.8660    3.3707   10.9895 C   0  0  0  0  0  0  0  0  0  0  0  0
    1.3140    2.5576   12.0419 C   0  0  0  0  0  0  0  0  0  0  0  0
   -0.5783    3.7648   10.8956 C   0  0  0  0  0  0  0  0  0  0  0  0
   -1.2780    3.6594    9.8925 O   0  0  0  0  0  0  0  0  0  0  0  0
   -1.0343    4.2553   12.0485 N   0  0  0  0  0  0  0  0  0  0  0  0
   -2.3943    4.7285   12.2897 C   0  0  0  0  0  0  0  0  0  0  0  0
   -2.6544    5.5820   13.3553 C   0  0  0  0  0  0  0  0  0  0  0  0
   -3.9490    6.0325   13.5849 C   0  0  0  0  0  0  0  0  0  0  0  0
   -4.9835    5.6294   12.7489 C   0  0  0  0  0  0  0  0  0  0  0  0
   -4.7235    4.7759   11.6833 C   0  0  0  0  0  0  0  0  0  0  0  0
   -3.4289    4.3254   11.4537 C   0  0  0  0  0  0  0  0  0  0  0  0
   -6.3808    6.1155   12.9967 C   0  0  0  0  0  0  0  0  0  0  0  0
   -7.3335    5.7936   12.2928 O   0  0  0  0  0  0  0  0  0  0  0  0
   -6.3969    6.9226   14.0705 N   0  0  0  0  0  0  0  0  0  0  0  0
   -7.9316    7.5992   14.5333 S   0  0  0  0  0  6  0  0  0  0  0  0
   -8.7871    6.4947   14.9809 O   0  0  0  0  0  0  0  0  0  0  0  0
   -8.3522    8.5161   13.4681 O   0  0  0  0  0  0  0  0  0  0  0  0
   -7.5285    8.5816   15.9619 C   0  0  0  0  0  0  0  0  0  0  0  0
   -0.5664   -0.8256   14.2115 C   0  0  0  0  0  0  0  0  0  0  0  0
   -1.9389   -1.0760   14.0580 C   0  0  0  0  0  0  0  0  0  0  0  0
   -2.6991   -0.3052   13.2021 O   0  0  0  0  0  0  0  0  0  0  0  0
   -2.0020    0.6746   12.5251 C   0  0  0  0  0  0  0  0  0  0  0  0
   -3.7528   -4.0708   13.5508 H   0  0  0  0  0  0  0  0  0  0  0  0
   -4.0179   -2.5675   12.6505 H   0  0  0  0  0  0  0  0  0  0  0  0
   -5.3306   -3.2808   13.5889 H   0  0  0  0  0  0  0  0  0  0  0  0
   -2.2100   -3.6528   16.2607 H   0  0  0  0  0  0  0  0  0  0  0  0
    0.1911   -3.2101   16.5029 H   0  0  0  0  0  0  0  0  0  0  0  0
    2.0246   -1.8858   16.0475 H   0  0  0  0  0  0  0  0  0  0  0  0
    5.1701    2.0030   13.3719 H   0  0  0  0  0  0  0  0  0  0  0  0
    6.7656    0.9739   15.2897 H   0  0  0  0  0  0  0  0  0  0  0  0
    6.2089   -0.8330   17.3301 H   0  0  0  0  0  0  0  0  0  0  0  0
    4.5934    2.3309   11.2002 H   0  0  0  0  0  0  0  0  0  0  0  0
    3.8342    3.7939    9.3845 H   0  0  0  0  0  0  0  0  0  0  0  0
    1.4564    4.4350    9.2166 H   0  0  0  0  0  0  0  0  0  0  0  0
    0.6053    2.2130   12.7811 H   0  0  0  0  0  0  0  0  0  0  0  0
   -0.4948    4.3595   12.8959 H   0  0  0  0  0  0  0  0  0  0  0  0
   -1.8489    5.8959   14.0061 H   0  0  0  0  0  0  0  0  0  0  0  0
   -4.1515    6.6970   14.4145 H   0  0  0  0  0  0  0  0  0  0  0  0
   -5.5289    4.4620   11.0325 H   0  0  0  0  0  0  0  0  0  0  0  0
   -3.2264    3.6609   10.6241 H   0  0  0  0  0  0  0  0  0  0  0  0
   -8.4319    9.0596   16.3408 H   0  0  0  0  0  0  0  0  0  0  0  0
   -6.8023    9.3456   15.6843 H   0  0  0  0  0  0  0  0  0  0  0  0
   -7.1045    7.9412   16.7353 H   0  0  0  0  0  0  0  0  0  0  0  0
   -0.1547   -0.0168   13.6337 H   0  0  0  0  0  0  0  0  0  0  0  0
   -2.6851    1.2257   11.8787 H   0  0  0  0  0  0  0  0  0  0  0  0
   -1.2218    0.2131   11.9198 H   0  0  0  0  0  0  0  0  0  0  0  0
   -1.5485    1.3591   13.2420 H   0  0  0  0  0  0  0  0  0  0  0  0
  1  2  1  0
  1 43  1  0
  1 44  1  0
  1 45  1  0
  2  3  1  0
  3  4  2  0
  3 40  1  0
  4  5  1  0
  4 46  1  0
  5  6  2  0
  5 47  1  0
  6  7  1  0
  6 39  1  0
  7  8  1  0
  7 48  1  0
  8  9  2  0
  8 16  1  0
  9 10  1  0
 10 11  2  0
 10 17  1  0
 11 12  1  0
 11 49  1  0
 12 13  1  0
 12 16  1  0
 13 14  2  0
 13 50  1  0
 14 15  1  0
 14 51  1  0
 15 16  2  0
 17 18  2  0
 17 22  1  0
 18 19  1  0
 18 52  1  0
 19 20  2  0
 19 53  1  0
 20 21  1  0
 20 54  1  0
 21 22  2  0
 21 23  1  0
 22 55  1  0
 23 24  2  0
 23 25  1  0
 25 26  1  0
 25 56  1  0
 26 27  2  0
 26 31  1  0
 27 28  1  0
 27 57  1  0
 28 29  2  0
 28 58  1  0
 29 30  1  0
 29 32  1  0
 30 31  2  0
 30 59  1  0
 31 60  1  0
 32 33  2  0
 32 34  1  0
 34 35  1  0
 35 36  2  0
 35 37  2  0
 35 38  1  0
 38 61  1  0
 38 62  1  0
 38 63  1  0
 39 40  2  0
 39 64  1  0
 40 41  1  0
 41 42  1  0
 42 65  1  0
 42 66  1  0
 42 67  1  0
M  CHG  1  34  -1
M  END
>  <IC50[nM]>  (44) 
2.2000000000000002

>  <atom.dprop.PartialCharge>  (44) 
0.110033035 -0.32698426 0.08183367 -0.14723757 -0.11870999 0.1254531 -0.6994175 0.61240613 -0.62118787 0.16643694 -0.12241769 -0.06608695 -0.2910855 0.3252877 -0.6271284 0.26507342 -0.07714094 -0.08148499 -0.13996083 -0.098363504 -0.1473903 -0.07636469 0.6819568 -0.57462364 -0.49415302 0.043366004 -0.1622815 -0.080073826 -0.13762018 -0.080073826 -0.1622815 0.8177405 -0.7272245 -0.9421842 1.5683107 -0.7083556 -0.7083556 -0.3379736 -0.12626515 0.08028005 -0.33351 0.11520225 0.042658497 0.042658497 0.042658497 0.1415669 0.1419259 0.43896973 0.1749398 0.17902696 0.04880719 0.13793778 0.1379184 0.14190447 0.15166955 0.31303376 0.12910491 0.14527902 0.14527902 0.12910491 0.090476826 0.090476826 0.090476826 0.1470874 0.039865226 0.039865226 0.039865226

>  <experimental dG reference units>  (44) 
nM

>  <experimental dG reference field>  (44) 
IC50[nM]

>  <kJ/mol experimental dG>  (44) 
-49.724456575977065

>  <kcal/mol experimental dG>  (44) 
-11.88443034798687

>  <AmberAM1BCCCache>  (44) 
gASVVAUAAAAAAABdlCiMFm51bXB5Ll9jb3JlLm11bHRpYXJyYXmUjAZzY2FsYXKUk5SMBW51bXB5lIwFZHR5cGWUk5SMAmY4lImIh5RSlChLA4wBPJROTk5K/////0r/////SwB0lGJDCFqEr+cXbPU/lIaUUpRoA2gJQwg0UvN8XVENwJSGlFKUaANoCUMI36FfcRUp8D+UhpRSlGgDaAlDCGqicVtiFfy/lIaUUpRoA2gJQwgkwUuUkNv6v5SGlFKUaANoCUMIWOVTHOC4+T+UhpRSlGgDaAlDCLlTuKc6jSDAlIaUUpRoA2gJQwh9wTvN7EsgQJSGlFKUaANoCUMIUMf9wfYLIcCUhpRSlGgDaAlDCIsa1dBMcRVAlIaUUpRoA2gJQwjdpz7JZsYDwJSGlFKUaANoCUMIPGNDE8Jf3z+UhpRSlGgDaAlDCFpDQOwWswPAlIaUUpRoA2gJQwiUseqysQqzv5SGlFKUaANoCUMIZibcIG/lBsCUhpRSlGgDaAlDCN0sRLMogwDAlIaUUpRoA2gJQwhICTJkjhD8v5SGlFKUaANoCUMIwn8fZbVP7b+UhpRSlGgDaAlDCBZM/4Q7cfu/lIaUUpRoA2gJQwhGz0VoNCDyv5SGlFKUaANoCUMI4MXP60ir+r+UhpRSlGgDaAlDCJHcQmfYpuu/lIaUUpRoA2gJQwjE55tW1KIfQJSGlFKUaANoCUMI8RDQyeXfG8CUhpRSlGgDaAlDCMni9kEbjBXAlIaUUpRoA2gJQwiEkmt+9XzdP5SGlFKUaANoCUMITTGiKzZbAcCUhpRSlGgDaAlDCNW9aC6q4Oy/lIaUUpRoA2gJQwhmXnqLhKv4v5SGlFKUaANoCUMI1b1oLqrg7L+UhpRSlGgDaAlDCE0xois2WwHAlIaUUpRoA2gJQwhMaldZxcAiQJSGlFKUaANoCUMI9q+P6wf1IMCUhpRSlGgDaAlDCMzHSEP8qSfAlIaUUpRoA2gJQwgtlj3HDs0zQJSGlFKUaANoCUMIS2CqSfWUIcCUhpRSlGgDaAlDCEtgqkn1lCHAlIaUUpRoA2gJQwiLi7jumRINwJSGlFKUaANoCUMIo3JoV0rQAcCUhpRSlGgDaAlDCP2B7bs7hPU/lIaUUpRoA2gJQwg2G/A2/XcNwJSGlFKUaANoCUMI613607zp9D+UhpRSlGgDaAlDCMYiOB7x5t8/lIaUUpRoA2gJQwjGIjge8ebfP5SGlFKUaANoCUMIxiI4HvHm3z+UhpRSlGgDaAlDCLiWvCDm0Po/lIaUUpRoA2gJQwj2yDsPjtr6P5SGlFKUaANoCUMIIOweAxo7FECUhpRSlGgDaAlDCNsdrBLGQwFAlIaUUpRoA2gJQwi+QL7kVuoBQJSGlFKUaANoCUMIjIOLBQRLAUCUhpRSlGgDaAlDCPSu5S0Y5Ps/lIaUUpRoA2gJQwh4fpMTtL35P5SGlFKUaANoCUMIHCt4wAEG+z+UhpRSlGgDaAlDCMWGA0Z5fv0/lIaUUpRoA2gJQwhciOoohFoNQJSGlFKUaANoCUMIwk+3ZtaP+T+UhpRSlGgDaAlDCHvCiuORJ/0/lIaUUpRoA2gJQwh7worjkSf9P5SGlFKUaANoCUMIwk+3ZtaP+T+UhpRSlGgDaAlDCCZqYmk5/Oc/lIaUUpRoA2gJQwgmamJpOfznP5SGlFKUaANoCUMIJmpiaTn85z+UhpRSlGgDaAlDCFKxp1n0y/s/lIaUUpRoA2gJQwiopf9trcTgP5SGlFKUaANoCUMIqKX/ba3E4D+UhpRSlGgDaAlDCKil/22txOA/lIaUUpRlLg==

$$$$
