ejm_47
     RDKit          3D

 39 41  0  0  1  0  0  0  0  0999 V2000
   -1.9612   21.5502  -27.3300 C   0  0  0  0  0  0  0  0  0  0  0  0
   -1.2942   22.4120  -28.1957 C   0  0  0  0  0  0  0  0  0  0  0  0
   -1.9550   22.9520  -29.2938 C   0  0  0  0  0  0  0  0  0  0  0  0
   -3.2998   22.6223  -29.5426 C   0  0  0  0  0  0  0  0  0  0  0  0
   -3.9689   21.7588  -28.6534 C   0  0  0  0  0  0  0  0  0  0  0  0
   -3.2917   21.2292  -27.5624 C   0  0  0  0  0  0  0  0  0  0  0  0
   -5.6403   21.3533  -28.9190 Cl  0  0  0  0  0  0  0  0  0  0  0  0
   -4.0401   23.1522  -30.7110 C   0  0  0  0  0  0  0  0  0  0  0  0
   -4.2265   22.4198  -31.6685 O   0  0  0  0  0  0  0  0  0  0  0  0
   -4.5133   24.4119  -30.6476 N   0  0  0  0  0  0  0  0  0  0  0  0
   -5.2869   25.1112  -31.5800 C   0  0  0  0  0  0  0  0  0  0  0  0
   -5.9620   24.5479  -32.6807 C   0  0  0  0  0  0  0  0  0  0  0  0
   -6.7806   25.3609  -33.4589 C   0  0  0  0  0  0  0  0  0  0  0  0
   -6.9234   26.6542  -33.1828 N   0  0  0  0  0  0  0  0  0  0  0  0
   -6.2984   27.2317  -32.1577 C   0  0  0  0  0  0  0  0  0  0  0  0
   -5.5070   26.4571  -31.3066 C   0  0  0  0  0  0  0  0  0  0  0  0
   -6.5391   28.5828  -31.8838 N   0  0  0  0  0  0  0  0  0  0  0  0
   -5.7134   29.4445  -31.2331 C   0  0  0  0  0  0  0  0  0  0  0  0
   -4.6156   29.1218  -30.8098 O   0  0  0  0  0  0  0  0  0  0  0  0
   -1.1124   24.0506  -30.3318 Cl  0  0  0  0  0  0  0  0  0  0  0  0
   -1.4436   21.1321  -26.4786 H   0  0  0  0  0  0  0  0  0  0  0  0
   -0.2591   22.6635  -28.0157 H   0  0  0  0  0  0  0  0  0  0  0  0
   -3.8111   20.5610  -26.8909 H   0  0  0  0  0  0  0  0  0  0  0  0
   -4.3168   24.9848  -29.8393 H   0  0  0  0  0  0  0  0  0  0  0  0
   -5.8400   23.4993  -32.9094 H   0  0  0  0  0  0  0  0  0  0  0  0
   -7.3119   24.9439  -34.3018 H   0  0  0  0  0  0  0  0  0  0  0  0
   -5.0645   26.9093  -30.4313 H   0  0  0  0  0  0  0  0  0  0  0  0
   -7.4045   29.0126  -32.1802 H   0  0  0  0  0  0  0  0  0  0  0  0
   -6.2070   30.8552  -31.0259 C   0  0  0  0  0  0  0  0  0  0  0  0
   -5.6712   31.4766  -29.7311 C   0  0  0  0  0  0  0  0  0  0  0  0
   -4.5282   32.0864  -30.5505 C   0  0  0  0  0  0  0  0  0  0  0  0
   -5.3815   31.8833  -31.8076 C   0  0  0  0  0  0  0  0  0  0  0  0
   -6.3587   32.2529  -29.3152 H   0  0  0  0  0  0  0  0  0  0  0  0
   -5.3503   30.7399  -28.9565 H   0  0  0  0  0  0  0  0  0  0  0  0
   -4.2966   33.1512  -30.3093 H   0  0  0  0  0  0  0  0  0  0  0  0
   -3.6135   31.4450  -30.5483 H   0  0  0  0  0  0  0  0  0  0  0  0
   -5.9737   32.7930  -32.0718 H   0  0  0  0  0  0  0  0  0  0  0  0
   -4.8299   31.4702  -32.6855 H   0  0  0  0  0  0  0  0  0  0  0  0
   -7.2836   30.9672  -31.1542 H   0  0  0  0  0  0  0  0  0  0  0  0
  1  2  2  0
  1  6  1  0
  1 21  1  0
  2  3  1  0
  2 22  1  0
  3  4  2  0
  3 20  1  0
  4  5  1  0
  4  8  1  0
  5  6  2  0
  5  7  1  0
  6 23  1  0
  8  9  2  0
  8 10  1  0
 10 11  1  0
 10 24  1  0
 11 12  2  0
 11 16  1  0
 12 13  1  0
 12 25  1  0
 13 14  2  0
 13 26  1  0
 14 15  1  0
 15 16  2  0
 15 17  1  0
 16 27  1  0
 17 18  1  0
 17 28  1  0
 18 19  2  0
 18 29  1  0
 29 30  1  0
 29 32  1  0
 29 39  1  0
 30 31  1  0
 30 33  1  0
 30 34  1  0
 31 32  1  0
 31 35  1  0
 31 36  1  0
 32 37  1  0
 32 38  1  0
M  END
>  <i_m_Source_File_Index>  (1) 
1

>  <b_m_subgroup_collapsed>  (1) 
0

>  <r_exp_dg>  (1) 
-9.79

>  <s_m_Source_File>  (1) 
tyk2_ligands.sdf

>  <s_m_Source_Path>  (1) 
/lrlhps/users/l045340/Projects/openFE/IndustryBenchmarks2024/industry_benchmarks/input_structures/prepared_structures/charge_annihilation_set/tyk2

>  <s_m_entry_id>  (1) 
1

>  <s_m_entry_name>  (1) 
tyk2_ligands.1

>  <s_m_subgroup_title>  (1) 
imported_structures

>  <s_m_subgroupid>  (1) 
imported_structures

>  <experimental dG reference units>  (1) 
kcal/mol

>  <experimental dG reference field>  (1) 
r_exp_dg

>  <kJ/mol experimental dG>  (1) 
-40.96136

>  <kcal/mol experimental dG>  (1) 
-9.79

>  <AmberAM1BCCCache>  (1) 
gASVQAMAAAAAAABdlCiMFm51bXB5Ll9jb3JlLm11bHRpYXJyYXmUjAZzY2FsYXKUk5SMBW51bXB5lIwFZHR5cGWUk5SMAmY4lImIh5RSlChLA4wBPJROTk5K/////0r/////SwB0lGJDCLaIjhgcHPK/lIaUUpRoA2gJQwgJ70v8ND34v5SGlFKUaANoCUMIaklCB7Ng4z+UhpRSlGgDaAlDCII8S3uDRvu/lIaUUpRoA2gJQwhqSUIHs2DjP5SGlFKUaANoCUMICe9L/DQ9+L+UhpRSlGgDaAlDCJ4zv99omua/lIaUUpRoA2gJQwi6g+pTP04gQJSGlFKUaANoCUMIr3VQpKezGcCUhpRSlGgDaAlDCG/VgZD84RXAlIaUUpRoA2gJQwhn4WJwHqD4P5SGlFKUaANoCUMIX8XK9PxpDMCUhpRSlGgDaAlDCDetvuQa5RRAlIaUUpRoA2gJQwiLdapiFiAgwJSGlFKUaANoCUMIiyAnuW6BGkCUhpRSlGgDaAlDCJQnczR+kBDAlIaUUpRoA2gJQwidCAVPKv0awJSGlFKUaANoCUMIndX+sVgaIECUhpRSlGgDaAlDCJh7tRFOdxnAlIaUUpRoA2gJQwieM7/faJrmv5SGlFKUaANoCUMIzPAYJngY/D+UhpRSlGgDaAlDCJvINj7Zsv0/lIaUUpRoA2gJQwibyDY+2bL9P5SGlFKUaANoCUMIedmLE8yYDkCUhpRSlGgDaAlDCAQoSEP+QAFAlIaUUpRoA2gJQwh98tou86/WP5SGlFKUaANoCUMIRS7Nl9Sk+T+UhpRSlGgDaAlDCKnnFxr1Bw5AlIaUUpRoA2gJQwj7Ks8bczEAwJSGlFKUaANoCUMIkGMO1bnm7r+UhpRSlGgDaAlDCGf7GPyUnvG/lIaUUpRoA2gJQwiQYw7Vuebuv5SGlFKUaANoCUMIPX+t0Gdb5z+UhpRSlGgDaAlDCD1/rdBnW+c/lIaUUpRoA2gJQwjOw6fFWJ/kP5SGlFKUaANoCUMIzsOnxVif5D+UhpRSlGgDaAlDCD1/rdBnW+c/lIaUUpRoA2gJQwg9f63QZ1vnP5SGlFKUaANoCUMI1uDmXMis7T+UhpRSlGUu

$$$$
jmc_32charg
     RDKit          3D

 38 40  0  0  1  0  0  0  0  0999 V2000
   -1.9612   21.5502  -27.3300 C   0  0  0  0  0  0  0  0  0  0  0  0
   -1.2942   22.4120  -28.1957 C   0  0  0  0  0  0  0  0  0  0  0  0
   -1.9550   22.9520  -29.2938 C   0  0  0  0  0  0  0  0  0  0  0  0
   -3.2998   22.6223  -29.5426 C   0  0  0  0  0  0  0  0  0  0  0  0
   -3.9689   21.7588  -28.6534 C   0  0  0  0  0  0  0  0  0  0  0  0
   -3.2917   21.2292  -27.5624 C   0  0  0  0  0  0  0  0  0  0  0  0
   -5.6403   21.3533  -28.9190 Cl  0  0  0  0  0  0  0  0  0  0  0  0
   -4.0401   23.1522  -30.7110 C   0  0  0  0  0  0  0  0  0  0  0  0
   -4.2265   22.4198  -31.6685 O   0  0  0  0  0  0  0  0  0  0  0  0
   -4.5133   24.4119  -30.6476 N   0  0  0  0  0  0  0  0  0  0  0  0
   -5.2869   25.1112  -31.5800 C   0  0  0  0  0  0  0  0  0  0  0  0
   -5.9620   24.5479  -32.6807 C   0  0  0  0  0  0  0  0  0  0  0  0
   -6.7806   25.3609  -33.4589 C   0  0  0  0  0  0  0  0  0  0  0  0
   -6.9234   26.6542  -33.1828 N   0  0  0  0  0  0  0  0  0  0  0  0
   -6.2987   27.2309  -32.1585 C   0  0  0  0  0  0  0  0  0  0  0  0
   -5.5070   26.4571  -31.3066 C   0  0  0  0  0  0  0  0  0  0  0  0
   -6.5387   28.5841  -31.8831 N   0  0  0  0  0  0  0  0  0  0  0  0
   -5.7133   29.4440  -31.2335 C   0  0  0  0  0  0  0  0  0  0  0  0
   -4.6156   29.1215  -30.8098 O   0  0  0  0  0  0  0  0  0  0  0  0
   -6.2317   30.8478  -31.0314 C   0  0  1  0  0  0  0  0  0  0  0  0
   -5.5793   31.7456  -29.9758 C   0  0  0  0  0  0  0  0  0  0  0  0
   -5.3432   32.0880  -31.4058 C   0  0  1  0  0  0  0  0  0  0  0  0
   -1.1124   24.0506  -30.3318 Cl  0  0  0  0  0  0  0  0  0  0  0  0
   -7.3053   30.9413  -31.1624 H   0  0  0  0  0  0  0  0  0  0  0  0
   -5.8632   32.8963  -31.8826 H   0  0  0  0  0  0  0  0  0  0  0  0
   -1.4436   21.1321  -26.4786 H   0  0  0  0  0  0  0  0  0  0  0  0
   -0.2591   22.6635  -28.0157 H   0  0  0  0  0  0  0  0  0  0  0  0
   -3.8111   20.5610  -26.8909 H   0  0  0  0  0  0  0  0  0  0  0  0
   -4.3168   24.9848  -29.8393 H   0  0  0  0  0  0  0  0  0  0  0  0
   -5.8400   23.4993  -32.9094 H   0  0  0  0  0  0  0  0  0  0  0  0
   -7.3119   24.9439  -34.3018 H   0  0  0  0  0  0  0  0  0  0  0  0
   -5.0645   26.9093  -30.4313 H   0  0  0  0  0  0  0  0  0  0  0  0
   -7.4044   29.0123  -32.1803 H   0  0  0  0  0  0  0  0  0  0  0  0
   -6.3522   32.2038  -29.3585 H   0  0  0  0  0  0  0  0  0  0  0  0
   -4.9172   31.1490  -29.3474 H   0  0  0  0  0  0  0  0  0  0  0  0
   -3.8988   32.2566  -31.8943 C   0  0  0  0  0  0  0  0  0  0  0  0
   -3.1072   32.9673  -31.2449 O   0  0  0  0  0  0  0  0  0  0  0  0
   -3.7376   32.1216  -33.1128 O   0  0  0  0  0  0  0  0  0  0  0  0
  1  2  2  0
  1  6  1  0
  1 26  1  0
  2  3  1  0
  2 27  1  0
  3  4  2  0
  3 23  1  0
  4  5  1  0
  4  8  1  0
  5  6  2  0
  5  7  1  0
  6 28  1  0
  8  9  2  0
  8 10  1  0
 10 11  1  0
 10 29  1  0
 11 12  2  0
 11 16  1  0
 12 13  1  0
 12 30  1  0
 13 14  2  0
 13 31  1  0
 14 15  1  0
 15 16  2  0
 15 17  1  0
 16 32  1  0
 17 18  1  0
 17 33  1  0
 18 19  2  0
 18 20  1  0
 20 21  1  0
 20 22  1  0
 20 24  1  1
 21 22  1  0
 21 34  1  0
 21 35  1  0
 22 25  1  1
 22 36  1  0
 36 37  1  0
 36 38  2  0
M  CHG  1  37  -1
M  END
>  <i_m_Source_File_Index>  (2) 
2

>  <b_m_subgroup_collapsed>  (2) 
0

>  <r_exp_dg>  (2) 
-11.66

>  <s_m_Source_File>  (2) 
tyk2_ligands.sdf

>  <s_m_Source_Path>  (2) 
/lrlhps/users/l045340/Projects/openFE/IndustryBenchmarks2024/industry_benchmarks/input_structures/prepared_structures/charge_annihilation_set/tyk2

>  <s_m_entry_id>  (2) 
2

>  <s_m_entry_name>  (2) 
tyk2_ligands.2

>  <s_m_subgroup_title>  (2) 
imported_structures

>  <s_m_subgroupid>  (2) 
imported_structures

>  <experimental dG reference units>  (2) 
kcal/mol

>  <experimental dG reference field>  (2) 
r_exp_dg

>  <kJ/mol experimental dG>  (2) 
-48.78544

>  <kcal/mol experimental dG>  (2) 
-11.66

>  <AmberAM1BCCCache>  (2) 
gASVLQMAAAAAAABdlCiMFm51bXB5Ll9jb3JlLm11bHRpYXJyYXmUjAZzY2FsYXKUk5SMBW51bXB5lIwFZHR5cGWUk5SMAmY4lImIh5RSlChLA4wBPJROTk5K/////0r/////SwB0lGJDCH2WuJjZyvO/lIaUUpRoA2gJQwj/CgKDG1v5v5SGlFKUaANoCUMIA9QhiImY4z+UhpRSlGgDaAlDCJStSSlg//i/lIaUUpRoA2gJQwgD1CGIiZjjP5SGlFKUaANoCUMI/woCgxtb+b+UhpRSlGgDaAlDCMCtY7ZKMua/lIaUUpRoA2gJQwg8wBODgiogQJSGlFKUaANoCUMIZecrvGPUGsCUhpRSlGgDaAlDCONy4tEhRBXAlIaUUpRoA2gJQwjTFXG5dU30P5SGlFKUaANoCUMI46/HpwljDsCUhpRSlGgDaAlDCMUptIRreRRAlIaUUpRoA2gJQwjOradjfbYgwJSGlFKUaANoCUMIXn5CIJFPG0CUhpRSlGgDaAlDCG+mv/iYww7AlIaUUpRoA2gJQwj5uHXuMJ4ZwJSGlFKUaANoCUMI1vxVV97PIECUhpRSlGgDaAlDCAGKvPvqjR7AlIaUUpRoA2gJQwhk2tmI/4UEwJSGlFKUaANoCUMIGRxT2jOM8r+UhpRSlGgDaAlDCCITCqOjQgLAlIaUUpRoA2gJQwjArWO2SjLmv5SGlFKUaANoCUMIKnBKNVe07T+UhpRSlGgDaAlDCLvOmgu+7uk/lIaUUpRoA2gJQwgH4+6lumn6P5SGlFKUaANoCUMIYLEED6tk/D+UhpRSlGgDaAlDCGCxBA+rZPw/lIaUUpRoA2gJQwg2tl5GG+MOQJSGlFKUaANoCUMIFWiGwgFR/z+UhpRSlGgDaAlDCAjxprWV08A/lIaUUpRoA2gJQwhmHK8r55kAQJSGlFKUaANoCUMIoQMlULvuEkCUhpRSlGgDaAlDCF/mLsFX/eg/lIaUUpRoA2gJQwhf5i7BV/3oP5SGlFKUaANoCUMIPT+zwk3SJUCUhpRSlGgDaAlDCKpCZetbdCPAlIaUUpRoA2gJQwiqQmXrW3QjwJSGlFKUZS4=

$$$$
jmc_31
     RDKit          3D

 40 42  0  0  1  0  0  0  0  0999 V2000
   -1.9612   21.5502  -27.3300 C   0  0  0  0  0  0  0  0  0  0  0  0
   -1.2942   22.4120  -28.1957 C   0  0  0  0  0  0  0  0  0  0  0  0
   -1.9550   22.9520  -29.2938 C   0  0  0  0  0  0  0  0  0  0  0  0
   -3.2998   22.6223  -29.5426 C   0  0  0  0  0  0  0  0  0  0  0  0
   -3.9689   21.7588  -28.6534 C   0  0  0  0  0  0  0  0  0  0  0  0
   -3.2917   21.2292  -27.5624 C   0  0  0  0  0  0  0  0  0  0  0  0
   -5.6403   21.3533  -28.9190 Cl  0  0  0  0  0  0  0  0  0  0  0  0
   -4.0401   23.1522  -30.7110 C   0  0  0  0  0  0  0  0  0  0  0  0
   -4.2265   22.4198  -31.6685 O   0  0  0  0  0  0  0  0  0  0  0  0
   -4.5133   24.4119  -30.6476 N   0  0  0  0  0  0  0  0  0  0  0  0
   -5.2869   25.1112  -31.5800 C   0  0  0  0  0  0  0  0  0  0  0  0
   -5.9620   24.5479  -32.6807 C   0  0  0  0  0  0  0  0  0  0  0  0
   -6.7806   25.3609  -33.4589 C   0  0  0  0  0  0  0  0  0  0  0  0
   -6.9234   26.6542  -33.1828 N   0  0  0  0  0  0  0  0  0  0  0  0
   -6.2987   27.2309  -32.1585 C   0  0  0  0  0  0  0  0  0  0  0  0
   -5.5070   26.4571  -31.3066 C   0  0  0  0  0  0  0  0  0  0  0  0
   -6.5385   28.5844  -31.8828 N   0  0  0  0  0  0  0  0  0  0  0  0
   -5.7133   29.4437  -31.2336 C   0  0  0  0  0  0  0  0  0  0  0  0
   -4.6155   29.1213  -30.8098 O   0  0  0  0  0  0  0  0  0  0  0  0
   -6.2316   30.8481  -31.0315 C   0  0  1  0  0  0  0  0  0  0  0  0
   -5.5795   31.7454  -29.9756 C   0  0  0  0  0  0  0  0  0  0  0  0
   -5.3633   32.0899  -31.4006 C   0  0  1  0  0  0  0  0  0  0  0  0
   -1.1124   24.0506  -30.3318 Cl  0  0  0  0  0  0  0  0  0  0  0  0
   -7.3053   30.9413  -31.1624 H   0  0  0  0  0  0  0  0  0  0  0  0
   -5.8633   32.8964  -31.8825 H   0  0  0  0  0  0  0  0  0  0  0  0
   -1.4436   21.1321  -26.4786 H   0  0  0  0  0  0  0  0  0  0  0  0
   -0.2591   22.6635  -28.0157 H   0  0  0  0  0  0  0  0  0  0  0  0
   -3.8111   20.5610  -26.8909 H   0  0  0  0  0  0  0  0  0  0  0  0
   -4.3168   24.9848  -29.8393 H   0  0  0  0  0  0  0  0  0  0  0  0
   -5.8400   23.4993  -32.9094 H   0  0  0  0  0  0  0  0  0  0  0  0
   -7.3119   24.9439  -34.3018 H   0  0  0  0  0  0  0  0  0  0  0  0
   -5.0645   26.9093  -30.4313 H   0  0  0  0  0  0  0  0  0  0  0  0
   -7.4044   29.0122  -32.1804 H   0  0  0  0  0  0  0  0  0  0  0  0
   -6.3522   32.2038  -29.3585 H   0  0  0  0  0  0  0  0  0  0  0  0
   -4.9171   31.1491  -29.3474 H   0  0  0  0  0  0  0  0  0  0  0  0
   -3.8890   32.2051  -31.7597 C   0  0  0  0  0  0  0  0  0  0  0  0
   -3.0703   32.8171  -30.9238 N   0  0  0  0  0  0  0  0  0  0  0  0
   -3.5316   32.1502  -32.9192 O   0  0  0  0  0  0  0  0  0  0  0  0
   -2.1035   32.9343  -31.1550 H   0  0  0  0  0  0  0  0  0  0  0  0
   -3.4441   33.1997  -30.0703 H   0  0  0  0  0  0  0  0  0  0  0  0
  1  2  2  0
  1  6  1  0
  1 26  1  0
  2  3  1  0
  2 27  1  0
  3  4  2  0
  3 23  1  0
  4  5  1  0
  4  8  1  0
  5  6  2  0
  5  7  1  0
  6 28  1  0
  8  9  2  0
  8 10  1  0
 10 11  1  0
 10 29  1  0
 11 12  2  0
 11 16  1  0
 12 13  1  0
 12 30  1  0
 13 14  2  0
 13 31  1  0
 14 15  1  0
 15 16  2  0
 15 17  1  0
 16 32  1  0
 17 18  1  0
 17 33  1  0
 18 19  2  0
 18 20  1  0
 20 21  1  0
 20 22  1  0
 20 24  1  1
 21 22  1  0
 21 34  1  0
 21 35  1  0
 22 25  1  1
 22 36  1  0
 36 37  1  0
 36 38  2  0
 37 39  1  0
 37 40  1  0
M  END
>  <i_m_Source_File_Index>  (3) 
3

>  <b_m_subgroup_collapsed>  (3) 
0

>  <r_exp_dg>  (3) 
-10.92

>  <s_m_Source_File>  (3) 
tyk2_ligands.sdf

>  <s_m_Source_Path>  (3) 
/lrlhps/users/l045340/Projects/openFE/IndustryBenchmarks2024/industry_benchmarks/input_structures/prepared_structures/charge_annihilation_set/tyk2

>  <s_m_entry_id>  (3) 
3

>  <s_m_entry_name>  (3) 
tyk2_ligands.3

>  <s_m_subgroup_title>  (3) 
imported_structures

>  <s_m_subgroupid>  (3) 
imported_structures

>  <experimental dG reference units>  (3) 
kcal/mol

>  <experimental dG reference field>  (3) 
r_exp_dg

>  <kJ/mol experimental dG>  (3) 
-45.689280000000004

>  <kcal/mol experimental dG>  (3) 
-10.92

>  <AmberAM1BCCCache>  (3) 
gASVUwMAAAAAAABdlCiMFm51bXB5Ll9jb3JlLm11bHRpYXJyYXmUjAZzY2FsYXKUk5SMBW51bXB5lIwFZHR5cGWUk5SMAmY4lImIh5RSlChLA4wBPJROTk5K/////0r/////SwB0lGJDCDlyYoot6PG/lIaUUpRoA2gJQwgw1l1CaiH4v5SGlFKUaANoCUMI1n+i0gBo4z+UhpRSlGgDaAlDCJEcFz4kc/u/lIaUUpRoA2gJQwjWf6LSAGjjP5SGlFKUaANoCUMIMNZdQmoh+L+UhpRSlGgDaAlDCOwB42vTYua/lIaUUpRoA2gJQwiKBrAlvVQgQJSGlFKUaANoCUMIEHDFAKymGcCUhpRSlGgDaAlDCKLOFdcS4RXAlIaUUpRoA2gJQwjj947+DNT4P5SGlFKUaANoCUMIlsO8XHbvC8CUhpRSlGgDaAlDCAW0Kp4E5hRAlIaUUpRoA2gJQwiN8QN7qiUgwJSGlFKUaANoCUMIcS7Z9ew5GkCUhpRSlGgDaAlDCA0pLhQXOxDAlIaUUpRoA2gJQwjQDkSGe3cawJSGlFKUaANoCUMIMc3qs4CTIECUhpRSlGgDaAlDCCZdtaLKZxrAlIaUUpRoA2gJQwj8stz3620EwJSGlFKUaANoCUMI6LBAq7p987+UhpRSlGgDaAlDCGRSggfZbf+/lIaUUpRoA2gJQwjsAeNr02Lmv5SGlFKUaANoCUMIIeYWHddz9T+UhpRSlGgDaAlDCNzqmnSPQ/U/lIaUUpRoA2gJQwgDDMkLHxz8P5SGlFKUaANoCUMIdOEk+KPO/T+UhpRSlGgDaAlDCHThJPijzv0/lIaUUpRoA2gJQwi35KFaw7IOQJSGlFKUaANoCUMI5DCcXhlzAUCUhpRSlGgDaAlDCG1Mi2etf9c/lIaUUpRoA2gJQwhNO/F2Ujn6P5SGlFKUaANoCUMIt+ShWsOyDkCUhpRSlGgDaAlDCBNhfwCQjPA/lIaUUpRoA2gJQwgTYX8AkIzwP5SGlFKUaANoCUMI2b0z+Oe8H0CUhpRSlGgDaAlDCBwKCcgFvR7AlIaUUpRoA2gJQwitHwExbtscwJSGlFKUaANoCUMI/ezI80VeDkCUhpRSlGgDaAlDCP3syPNFXg5AlIaUUpRlLg==

$$$$
ejm_52charg
     RDKit          3D

 39 41  0  0  1  0  0  0  0  0999 V2000
   -1.9612   21.5502  -27.3300 C   0  0  0  0  0  0  0  0  0  0  0  0
   -1.2942   22.4120  -28.1957 C   0  0  0  0  0  0  0  0  0  0  0  0
   -1.9550   22.9520  -29.2938 C   0  0  0  0  0  0  0  0  0  0  0  0
   -3.2998   22.6223  -29.5426 C   0  0  0  0  0  0  0  0  0  0  0  0
   -3.9689   21.7588  -28.6534 C   0  0  0  0  0  0  0  0  0  0  0  0
   -3.2917   21.2292  -27.5624 C   0  0  0  0  0  0  0  0  0  0  0  0
   -5.6403   21.3533  -28.9190 Cl  0  0  0  0  0  0  0  0  0  0  0  0
   -4.0401   23.1522  -30.7110 C   0  0  0  0  0  0  0  0  0  0  0  0
   -4.2265   22.4198  -31.6685 O   0  0  0  0  0  0  0  0  0  0  0  0
   -4.5133   24.4119  -30.6476 N   0  0  0  0  0  0  0  0  0  0  0  0
   -5.2869   25.1112  -31.5800 C   0  0  0  0  0  0  0  0  0  0  0  0
   -5.9620   24.5479  -32.6807 C   0  0  0  0  0  0  0  0  0  0  0  0
   -6.7806   25.3609  -33.4589 C   0  0  0  0  0  0  0  0  0  0  0  0
   -6.9234   26.6542  -33.1828 N   0  0  0  0  0  0  0  0  0  0  0  0
   -6.2984   27.2317  -32.1577 C   0  0  0  0  0  0  0  0  0  0  0  0
   -5.5070   26.4571  -31.3066 C   0  0  0  0  0  0  0  0  0  0  0  0
   -6.5391   28.5828  -31.8838 N   0  0  0  0  0  0  0  0  0  0  0  0
   -5.7134   29.4445  -31.2331 C   0  0  0  0  0  0  0  0  0  0  0  0
   -4.6156   29.1218  -30.8098 O   0  0  0  0  0  0  0  0  0  0  0  0
   -1.1124   24.0506  -30.3318 Cl  0  0  0  0  0  0  0  0  0  0  0  0
   -1.4436   21.1321  -26.4786 H   0  0  0  0  0  0  0  0  0  0  0  0
   -0.2591   22.6635  -28.0157 H   0  0  0  0  0  0  0  0  0  0  0  0
   -3.8111   20.5610  -26.8909 H   0  0  0  0  0  0  0  0  0  0  0  0
   -4.3168   24.9848  -29.8393 H   0  0  0  0  0  0  0  0  0  0  0  0
   -5.8400   23.4993  -32.9094 H   0  0  0  0  0  0  0  0  0  0  0  0
   -7.3119   24.9439  -34.3018 H   0  0  0  0  0  0  0  0  0  0  0  0
   -5.0645   26.9093  -30.4313 H   0  0  0  0  0  0  0  0  0  0  0  0
   -7.4045   29.0126  -32.1802 H   0  0  0  0  0  0  0  0  0  0  0  0
   -6.2070   30.8552  -31.0259 C   0  0  0  0  0  0  0  0  0  0  0  0
   -5.6712   31.4766  -29.7311 C   0  0  0  0  0  0  0  0  0  0  0  0
   -4.5282   32.0864  -30.5505 N   0  0  0  0  0  0  0  0  0  0  0  0
   -5.3815   31.8833  -31.8076 C   0  0  0  0  0  0  0  0  0  0  0  0
   -6.3587   32.2529  -29.3152 H   0  0  0  0  0  0  0  0  0  0  0  0
   -5.3503   30.7399  -28.9565 H   0  0  0  0  0  0  0  0  0  0  0  0
   -5.9737   32.7930  -32.0718 H   0  0  0  0  0  0  0  0  0  0  0  0
   -4.8299   31.4702  -32.6855 H   0  0  0  0  0  0  0  0  0  0  0  0
   -7.2836   30.9672  -31.1542 H   0  0  0  0  0  0  0  0  0  0  0  0
   -4.3496   33.0279  -30.2314 H   0  0  0  0  0  0  0  0  0  0  0  0
   -3.6980   31.5112  -30.5473 H   0  0  0  0  0  0  0  0  0  0  0  0
  1  2  2  0
  1  6  1  0
  1 21  1  0
  2  3  1  0
  2 22  1  0
  3  4  2  0
  3 20  1  0
  4  5  1  0
  4  8  1  0
  5  6  2  0
  5  7  1  0
  6 23  1  0
  8  9  2  0
  8 10  1  0
 10 11  1  0
 10 24  1  0
 11 12  2  0
 11 16  1  0
 12 13  1  0
 12 25  1  0
 13 14  2  0
 13 26  1  0
 14 15  1  0
 15 16  2  0
 15 17  1  0
 16 27  1  0
 17 18  1  0
 17 28  1  0
 18 19  2  0
 18 29  1  0
 29 30  1  0
 29 32  1  0
 29 37  1  0
 30 31  1  0
 30 33  1  0
 30 34  1  0
 31 32  1  0
 31 38  1  0
 31 39  1  0
 32 35  1  0
 32 36  1  0
M  CHG  1  31   1
M  END
>  <i_m_Source_File_Index>  (4) 
6

>  <b_m_subgroup_collapsed>  (4) 
0

>  <r_exp_dg>  (4) 
-7.49

>  <s_m_Source_File>  (4) 
tyk2_ligands.sdf

>  <s_m_Source_Path>  (4) 
/lrlhps/users/l045340/Projects/openFE/IndustryBenchmarks2024/industry_benchmarks/input_structures/prepared_structures/charge_annihilation_set/tyk2

>  <s_m_entry_id>  (4) 
6

>  <s_m_entry_name>  (4) 
tyk2_ligands.6

>  <s_m_subgroup_title>  (4) 
imported_structures

>  <s_m_subgroupid>  (4) 
imported_structures

>  <experimental dG reference units>  (4) 
kcal/mol

>  <experimental dG reference field>  (4) 
r_exp_dg

>  <kJ/mol experimental dG>  (4) 
-31.338160000000002

>  <kcal/mol experimental dG>  (4) 
-7.49

>  <AmberAM1BCCCache>  (4) 
gASVQAMAAAAAAABdlCiMFm51bXB5Ll9jb3JlLm11bHRpYXJyYXmUjAZzY2FsYXKUk5SMBW51bXB5lIwFZHR5cGWUk5SMAmY4lImIh5RSlChLA4wBPJROTk5K/////0r/////SwB0lGJDCESzMiyXafC/lIaUUpRoA2gJQwhQBB6G8mP3v5SGlFKUaANoCUMI9D86WELB4z+UhpRSlGgDaAlDCDgNIxBQKf2/lIaUUpRoA2gJQwj0PzpYQsHjP5SGlFKUaANoCUMIUAQehvJj97+UhpRSlGgDaAlDCOQuO4iwyua/lIaUUpRoA2gJQwgugEcSdXIgQJSGlFKUaANoCUMIPIae1qwKGcCUhpRSlGgDaAlDCOPR3k4yBhbAlIaUUpRoA2gJQwg409Zp9TD5P5SGlFKUaANoCUMI2BzVR8/sCMCUhpRSlGgDaAlDCJWvgBD3zBRAlIaUUpRoA2gJQwgh6e980p4gwJSGlFKUaANoCUMIYm1IR+JwF0CUhpRSlGgDaAlDCHjmZlkHGAvAlIaUUpRoA2gJQwihSVwCUWUYwJSGlFKUaANoCUMII74NwpJzH0CUhpRSlGgDaAlDCH1NbrwIThvAlIaUUpRoA2gJQwjkLjuIsMrmv5SGlFKUaANoCUMIs898wW1q/T+UhpRSlGgDaAlDCN+pXAWr7P4/lIaUUpRoA2gJQwjfqVwFq+z+P5SGlFKUaANoCUMIp83BOH8RD0CUhpRSlGgDaAlDCDACKIc7wwJAlIaUUpRoA2gJQwhYNTqCJTveP5SGlFKUaANoCUMIneKMH0+p/D+UhpRSlGgDaAlDCAXQg2Rb+Q5AlIaUUpRoA2gJQwiEB3GLjJsBwJSGlFKUaANoCUMIRcMdj4je+z+UhpRSlGgDaAlDCJKxoHgc1iLAlIaUUpRoA2gJQwhFwx2PiN77P5SGlFKUaANoCUMIn3Q9+kvh+D+UhpRSlGgDaAlDCJ90PfpL4fg/lIaUUpRoA2gJQwifdD36S+H4P5SGlFKUaANoCUMIn3Q9+kvh+D+UhpRSlGgDaAlDCFygwiO1Ivc/lIaUUpRoA2gJQwhE+wkiv90VQJSGlFKUaANoCUMIRPsJIr/dFUCUhpRSlGUu

$$$$
ejm_46
     RDKit          3D

 36 38  0  0  1  0  0  0  0  0999 V2000
   -1.9612   21.5502  -27.3300 C   0  0  0  0  0  0  0  0  0  0  0  0
   -1.2942   22.4120  -28.1957 C   0  0  0  0  0  0  0  0  0  0  0  0
   -1.9550   22.9520  -29.2938 C   0  0  0  0  0  0  0  0  0  0  0  0
   -3.2998   22.6223  -29.5426 C   0  0  0  0  0  0  0  0  0  0  0  0
   -3.9689   21.7588  -28.6534 C   0  0  0  0  0  0  0  0  0  0  0  0
   -3.2917   21.2292  -27.5624 C   0  0  0  0  0  0  0  0  0  0  0  0
   -5.6403   21.3533  -28.9190 Cl  0  0  0  0  0  0  0  0  0  0  0  0
   -4.0401   23.1522  -30.7110 C   0  0  0  0  0  0  0  0  0  0  0  0
   -4.2265   22.4198  -31.6685 O   0  0  0  0  0  0  0  0  0  0  0  0
   -4.5133   24.4119  -30.6476 N   0  0  0  0  0  0  0  0  0  0  0  0
   -5.2869   25.1112  -31.5800 C   0  0  0  0  0  0  0  0  0  0  0  0
   -5.9620   24.5479  -32.6807 C   0  0  0  0  0  0  0  0  0  0  0  0
   -6.7806   25.3609  -33.4589 C   0  0  0  0  0  0  0  0  0  0  0  0
   -6.9234   26.6542  -33.1828 N   0  0  0  0  0  0  0  0  0  0  0  0
   -6.2984   27.2317  -32.1577 C   0  0  0  0  0  0  0  0  0  0  0  0
   -5.5070   26.4571  -31.3066 C   0  0  0  0  0  0  0  0  0  0  0  0
   -6.5391   28.5828  -31.8838 N   0  0  0  0  0  0  0  0  0  0  0  0
   -5.7134   29.4445  -31.2331 C   0  0  0  0  0  0  0  0  0  0  0  0
   -4.6156   29.1218  -30.8098 O   0  0  0  0  0  0  0  0  0  0  0  0
   -6.2319   30.8471  -31.0310 C   0  0  0  0  0  0  0  0  0  0  0  0
   -5.5787   31.7462  -29.9763 C   0  0  0  0  0  0  0  0  0  0  0  0
   -5.3636   32.0236  -31.4653 C   0  0  0  0  0  0  0  0  0  0  0  0
   -4.3865   31.7887  -31.8874 H   0  0  0  0  0  0  0  0  0  0  0  0
   -1.1124   24.0506  -30.3318 Cl  0  0  0  0  0  0  0  0  0  0  0  0
   -7.3054   30.9413  -31.1624 H   0  0  0  0  0  0  0  0  0  0  0  0
   -5.8627   32.8962  -31.8829 H   0  0  0  0  0  0  0  0  0  0  0  0
   -1.4436   21.1321  -26.4786 H   0  0  0  0  0  0  0  0  0  0  0  0
   -0.2591   22.6635  -28.0157 H   0  0  0  0  0  0  0  0  0  0  0  0
   -3.8111   20.5610  -26.8909 H   0  0  0  0  0  0  0  0  0  0  0  0
   -4.3168   24.9848  -29.8393 H   0  0  0  0  0  0  0  0  0  0  0  0
   -5.8400   23.4993  -32.9094 H   0  0  0  0  0  0  0  0  0  0  0  0
   -7.3119   24.9439  -34.3018 H   0  0  0  0  0  0  0  0  0  0  0  0
   -5.0645   26.9093  -30.4313 H   0  0  0  0  0  0  0  0  0  0  0  0
   -7.4045   29.0126  -32.1802 H   0  0  0  0  0  0  0  0  0  0  0  0
   -6.3523   32.2035  -29.3584 H   0  0  0  0  0  0  0  0  0  0  0  0
   -4.9174   31.1488  -29.3474 H   0  0  0  0  0  0  0  0  0  0  0  0
  1  2  2  0
  1  6  1  0
  1 27  1  0
  2  3  1  0
  2 28  1  0
  3  4  2  0
  3 24  1  0
  4  5  1  0
  4  8  1  0
  5  6  2  0
  5  7  1  0
  6 29  1  0
  8  9  2  0
  8 10  1  0
 10 11  1  0
 10 30  1  0
 11 12  2  0
 11 16  1  0
 12 13  1  0
 12 31  1  0
 13 14  2  0
 13 32  1  0
 14 15  1  0
 15 16  2  0
 15 17  1  0
 16 33  1  0
 17 18  1  0
 17 34  1  0
 18 19  2  0
 18 20  1  0
 20 21  1  0
 20 22  1  0
 20 25  1  0
 21 22  1  0
 21 35  1  0
 21 36  1  0
 22 23  1  0
 22 26  1  0
M  END
>  <i_m_Source_File_Index>  (5) 
7

>  <b_m_subgroup_collapsed>  (5) 
0

>  <r_exp_dg>  (5) 
-11.42

>  <s_m_Source_File>  (5) 
tyk2_ligands.sdf

>  <s_m_Source_Path>  (5) 
/lrlhps/users/l045340/Projects/openFE/IndustryBenchmarks2024/industry_benchmarks/input_structures/prepared_structures/charge_annihilation_set/tyk2

>  <s_m_entry_id>  (5) 
7

>  <s_m_entry_name>  (5) 
tyk2_ligands.7

>  <s_m_subgroup_title>  (5) 
imported_structures

>  <s_m_subgroupid>  (5) 
imported_structures

>  <experimental dG reference units>  (5) 
kcal/mol

>  <experimental dG reference field>  (5) 
r_exp_dg

>  <kJ/mol experimental dG>  (5) 
-47.78128

>  <kcal/mol experimental dG>  (5) 
-11.42

>  <AmberAM1BCCCache>  (5) 
gASVBwMAAAAAAABdlCiMFm51bXB5Ll9jb3JlLm11bHRpYXJyYXmUjAZzY2FsYXKUk5SMBW51bXB5lIwFZHR5cGWUk5SMAmY4lImIh5RSlChLA4wBPJROTk5K/////0r/////SwB0lGJDCDE6l9uHGfK/lIaUUpRoA2gJQwiDoFS/oDr4v5SGlFKUaANoCUMIc+Ywgdtl4z+UhpRSlGgDaAlDCPztUz7vQ/u/lIaUUpRoA2gJQwhz5jCB22XjP5SGlFKUaANoCUMIg6BUv6A6+L+UhpRSlGgDaAlDCJWW0GVAlea/lIaUUpRoA2gJQwiLbYnbkU4gQJSGlFKUaANoCUMIDqISlQKzGcCUhpRSlGgDaAlDCM4BRIFX4RXAlIaUUpRoA2gJQwgyK9ZV+tL4P5SGlFKUaANoCUMIvxuNqtaADMCUhpRSlGgDaAlDCKp/G97R8RRAlIaUUpRoA2gJQwi7iwvbwx8gwJSGlFKUaANoCUMILPRkyBOCGkCUhpRSlGgDaAlDCMRSVA/rmxDAlIaUUpRoA2gJQwhZN4lrYeQawJSGlFKUaANoCUMI+LWVijp7IECUhpRSlGgDaAlDCA+vvYU9LhnAlIaUUpRoA2gJQwjfDzGdBM8EwJSGlFKUaANoCUMIOUeLZQWq9b+UhpRSlGgDaAlDCDlHi2UFqvW/lIaUUpRoA2gJQwiub0nQx0LuP5SGlFKUaANoCUMIlZbQZUCV5r+UhpRSlGgDaAlDCM81doEWUfQ/lIaUUpRoA2gJQwiub0nQx0LuP5SGlFKUaANoCUMIUj8QYwwb/D+UhpRSlGgDaAlDCCEXLntttf0/lIaUUpRoA2gJQwghFy57bbX9P5SGlFKUaANoCUMIvIAHMhaaDkCUhpRSlGgDaAlDCEbPw2FIQgFAlIaUUpRoA2gJQwiQLLgiRLrWP5SGlFKUaANoCUMIy3zE1Gin+T+UhpRSlGgDaAlDCNOHTbWqUQ5AlIaUUpRoA2gJQwiub0nQx0LuP5SGlFKUaANoCUMIrm9J0MdC7j+UhpRSlGUu

$$$$
