2g
     RDKit          3D

 46 49  0  0  1  0  0  0  0  0999 V2000
   26.9885    8.8880   30.3679 C   0  0  0  0  0  0  0  0  0  0  0  0
   28.3349    9.5256   30.7564 C   0  0  0  0  0  0  0  0  0  0  0  0
   28.4585    8.2187   32.7748 C   0  0  0  0  0  0  0  0  0  0  0  0
   27.1113    7.5379   32.4758 C   0  0  0  0  0  0  0  0  0  0  0  0
   15.9735   10.5883   31.7946 C   0  0  0  0  0  0  0  0  0  0  0  0
   29.0938    8.6134   31.5551 O   0  0  0  0  0  0  0  0  0  0  0  0
   21.3330   12.5360   31.2560 C   0  0  0  0  0  0  0  0  0  0  0  0
   17.2595   11.1241   31.8271 C   0  0  0  0  0  0  0  0  0  0  0  0
   23.8140    8.4300   31.0230 C   0  0  0  0  0  0  0  0  0  0  0  0
   26.2274    8.4616   31.6296 C   0  0  0  0  0  0  0  0  0  0  0  0
   21.4260    9.7450   30.7760 C   0  0  0  0  0  0  0  0  0  0  0  0
   20.2000   10.4070   30.6460 C   0  0  0  0  0  0  0  0  0  0  0  0
   15.1355   10.8346   30.7068 C   0  0  0  0  0  0  0  0  0  0  0  0
   15.5847   11.6282   29.6515 C   0  0  0  0  0  0  0  0  0  0  0  0
   16.8695   12.1726   29.6836 C   0  0  0  0  0  0  0  0  0  0  0  0
   22.5820   10.4440   31.1400 C   0  0  0  0  0  0  0  0  0  0  0  0
   21.5200    8.3710   30.5390 C   0  0  0  0  0  0  0  0  0  0  0  0
   20.1110   11.7830   30.8770 C   0  0  0  0  0  0  0  0  0  0  0  0
   17.7211   11.9107   30.7593 C   0  0  0  0  0  0  0  0  0  0  0  0
   23.7892   12.5343   31.7909 C   0  0  0  0  0  0  0  0  0  0  0  0
   18.0530   10.8744   32.8945 F   0  0  0  0  0  0  0  0  0  0  0  0
   18.9603   12.5147   30.7740 O   0  0  0  0  0  0  0  0  0  0  0  0
   22.6990    7.7390   30.6640 N   0  0  0  0  0  0  0  0  0  0  0  0
   21.2570   13.7670   31.4640 O   0  0  0  0  0  0  0  0  0  0  0  0
   22.5560   11.8400   31.3820 N   0  0  0  0  0  0  0  0  0  0  0  0
   23.7460    9.7650   31.2550 N   0  0  0  0  0  0  0  0  0  0  0  0
   25.0065    7.7576   31.2477 N   0  0  0  0  0  0  0  0  0  0  0  0
   14.9397   11.8223   28.8068 H   0  0  0  0  0  0  0  0  0  0  0  0
   17.2109   12.7962   28.8696 H   0  0  0  0  0  0  0  0  0  0  0  0
   15.6396    9.9670   32.6127 H   0  0  0  0  0  0  0  0  0  0  0  0
   19.3160    9.8559   30.3582 H   0  0  0  0  0  0  0  0  0  0  0  0
   20.6580    7.7872   30.2473 H   0  0  0  0  0  0  0  0  0  0  0  0
   27.1674    8.0234   29.7273 H   0  0  0  0  0  0  0  0  0  0  0  0
   26.3989    9.5961   29.7843 H   0  0  0  0  0  0  0  0  0  0  0  0
   28.1800   10.4612   31.2979 H   0  0  0  0  0  0  0  0  0  0  0  0
   28.9072    9.7817   29.8652 H   0  0  0  0  0  0  0  0  0  0  0  0
   29.1154    7.5317   33.3100 H   0  0  0  0  0  0  0  0  0  0  0  0
   28.3204    9.0856   33.4245 H   0  0  0  0  0  0  0  0  0  0  0  0
   26.6094    7.2750   33.4077 H   0  0  0  0  0  0  0  0  0  0  0  0
   27.3082    6.6043   31.9481 H   0  0  0  0  0  0  0  0  0  0  0  0
   25.9774    9.3508   32.2161 H   0  0  0  0  0  0  0  0  0  0  0  0
   24.5510   12.4298   31.0180 H   0  0  0  0  0  0  0  0  0  0  0  0
   24.1807   12.0901   32.7065 H   0  0  0  0  0  0  0  0  0  0  0  0
   23.6442   13.5994   31.9765 H   0  0  0  0  0  0  0  0  0  0  0  0
   25.0598    6.7708   31.0168 H   0  0  0  0  0  0  0  0  0  0  0  0
   14.1441   10.4045   30.6807 H   0  0  0  0  0  0  0  0  0  0  0  0
  1  2  1  0
  1 10  1  0
  1 33  1  0
  1 34  1  0
  2  6  1  0
  2 35  1  0
  2 36  1  0
  3  4  1  0
  3  6  1  0
  3 37  1  0
  3 38  1  0
  4 10  1  0
  4 39  1  0
  4 40  1  0
  5  8  2  0
  5 13  1  0
  5 30  1  0
  7 18  1  0
  7 24  2  0
  7 25  1  0
  8 19  1  0
  8 21  1  0
  9 23  1  0
  9 26  2  0
  9 27  1  0
 10 27  1  0
 10 41  1  0
 11 12  1  0
 11 16  2  0
 11 17  1  0
 12 18  2  0
 12 31  1  0
 13 14  2  0
 13 46  1  0
 14 15  1  0
 14 28  1  0
 15 19  2  0
 15 29  1  0
 16 25  1  0
 16 26  1  0
 17 23  2  0
 17 32  1  0
 18 22  1  0
 19 22  1  0
 20 25  1  0
 20 42  1  0
 20 43  1  0
 20 44  1  0
 27 45  1  0
M  END
>  <r_exp_dg>  (1) 
-10.66

>  <AmberAM1BCCCache>  (1) 
gASVxQMAAAAAAABdlCiMFm51bXB5Ll9jb3JlLm11bHRpYXJyYXmUjAZzY2FsYXKUk5SMBW51bXB5lIwFZHR5cGWUk5SMAmY4lImIh5RSlChLA4wBPJROTk5K/////0r/////SwB0lGJDCMxnIvNDrvi/lIaUUpRoA2gJQwjlmgtotzj4P5SGlFKUaANoCUMI5ZoLaLc4+D+UhpRSlGgDaAlDCMxnIvNDrvi/lIaUUpRoA2gJQwjjZF2iVOz+v5SGlFKUaANoCUMIbBQJh/6pE8CUhpRSlGgDaAlDCFX4l8wNnSBAlIaUUpRoA2gJQwiLzPX+xj32P5SGlFKUaANoCUMIIGBcpb+pJUCUhpRSlGgDaAlDCDrFcE1emwRAlIaUUpRoA2gJQwg5Siu3cI8TwJSGlFKUaANoCUMIYyDO1jocgL+UhpRSlGgDaAlDCGlywh5gLPS/lIaUUpRoA2gJQwga20EuVTX6v5SGlFKUaANoCUMIPZji2iKq8r+UhpRSlGgDaAlDCI3U9NExPh1AlIaUUpRoA2gJQwghTZuJDm8YQJSGlFKUaANoCUMImW+Clttu4L+UhpRSlGgDaAlDCPavNMT/BeE/lIaUUpRoA2gJQwgLKGqJTofqP5SGlFKUaANoCUMIs0aGjjkA+r+UhpRSlGgDaAlDCJ+2r4PPawXAlIaUUpRoA2gJQwjtzFAnXOQhwJSGlFKUaANoCUMIT8JgfL8QHcCUhpRSlGgDaAlDCLbYgenlABTAlIaUUpRoA2gJQwh87u5zKRsjwJSGlFKUaANoCUMIEvPfWwxvI8CUhpRSlGgDaAlDCC701MFSyfo/lIaUUpRoA2gJQwidIuAN1+EAQJSGlFKUaANoCUMIFdM4XUgb/D+UhpRSlGgDaAlDCCiMfDx77/4/lIaUUpRoA2gJQwj6LxqTrr/ZP5SGlFKUaANoCUMIoUIMKRpt5z+UhpRSlGgDaAlDCKFCDCkabec/lIaUUpRoA2gJQwgzrgfwuyLjP5SGlFKUaANoCUMIM64H8Lsi4z+UhpRSlGgDaAlDCDOuB/C7IuM/lIaUUpRoA2gJQwgzrgfwuyLjP5SGlFKUaANoCUMIoUIMKRpt5z+UhpRSlGgDaAlDCKFCDCkabec/lIaUUpRoA2gJQwjIJS0m3aPwP5SGlFKUaANoCUMI5HvllCoq6D+UhpRSlGgDaAlDCOR75ZQqKug/lIaUUpRoA2gJQwjke+WUKiroP5SGlFKUaANoCUMIWZR9iYaSFECUhpRSlGgDaAlDCF8CYch7OPo/lIaUUpRlLg==

>  <experimental dG reference units>  (1) 
kcal/mol

>  <experimental dG reference field>  (1) 
r_exp_dg

>  <kJ/mol experimental dG>  (1) 
-44.601440000000004

>  <kcal/mol experimental dG>  (1) 
-10.66

$$$$
2gg
     RDKit          3D

 48 51  0  0  1  0  0  0  0  0999 V2000
   27.1696    8.6859   30.4818 C   0  0  0  0  0  0  0  0  0  0  0  0
   28.3624    9.6120   30.8403 C   0  0  0  0  0  0  0  0  0  0  0  0
   28.0351    8.4847   33.4900 C   0  0  0  0  0  0  0  0  0  0  0  0
   26.8927    7.6745   32.8204 C   0  0  0  0  0  0  0  0  0  0  0  0
   15.9294   10.6052   31.6573 C   0  0  0  0  0  0  0  0  0  0  0  0
   21.3330   12.5360   31.2560 C   0  0  0  0  0  0  0  0  0  0  0  0
   17.2152   11.1331   31.7501 C   0  0  0  0  0  0  0  0  0  0  0  0
   23.8140    8.4300   31.0230 C   0  0  0  0  0  0  0  0  0  0  0  0
   26.2265    8.4660   31.6799 C   0  0  0  0  0  0  0  0  0  0  0  0
   21.4260    9.7450   30.7760 C   0  0  0  0  0  0  0  0  0  0  0  0
   20.2000   10.4070   30.6460 C   0  0  0  0  0  0  0  0  0  0  0  0
   15.1497   10.8616   30.5334 C   0  0  0  0  0  0  0  0  0  0  0  0
   15.6431   11.6669   29.5114 C   0  0  0  0  0  0  0  0  0  0  0  0
   16.9245   12.2091   29.6032 C   0  0  0  0  0  0  0  0  0  0  0  0
   22.5820   10.4440   31.1400 C   0  0  0  0  0  0  0  0  0  0  0  0
   21.5200    8.3710   30.5390 C   0  0  0  0  0  0  0  0  0  0  0  0
   20.1110   11.7830   30.8770 C   0  0  0  0  0  0  0  0  0  0  0  0
   17.7267   11.9270   30.7102 C   0  0  0  0  0  0  0  0  0  0  0  0
   23.7892   12.5343   31.7910 C   0  0  0  0  0  0  0  0  0  0  0  0
   17.9631   10.8645   32.8447 F   0  0  0  0  0  0  0  0  0  0  0  0
   13.9217   10.3182   30.4212 F   0  0  0  0  0  0  0  0  0  0  0  0
   18.9657   12.5219   30.7793 O   0  0  0  0  0  0  0  0  0  0  0  0
   22.6990    7.7390   30.6640 N   0  0  0  0  0  0  0  0  0  0  0  0
   21.2570   13.7670   31.4640 O   0  0  0  0  0  0  0  0  0  0  0  0
   22.5560   11.8400   31.3820 N   0  0  0  0  0  0  0  0  0  0  0  0
   23.7460    9.7650   31.2550 N   0  0  0  0  0  0  0  0  0  0  0  0
   25.0178    7.7664   31.2339 N   0  0  0  0  0  0  0  0  0  0  0  0
   15.0281   11.8636   28.6474 H   0  0  0  0  0  0  0  0  0  0  0  0
   17.3021   12.8408   28.8118 H   0  0  0  0  0  0  0  0  0  0  0  0
   15.5481    9.9750   32.4464 H   0  0  0  0  0  0  0  0  0  0  0  0
   19.3168    9.8549   30.3582 H   0  0  0  0  0  0  0  0  0  0  0  0
   20.6584    7.7869   30.2464 H   0  0  0  0  0  0  0  0  0  0  0  0
   27.5302    7.7203   30.1234 H   0  0  0  0  0  0  0  0  0  0  0  0
   26.6152    9.1292   29.6516 H   0  0  0  0  0  0  0  0  0  0  0  0
   28.0207   10.5971   31.1485 H   0  0  0  0  0  0  0  0  0  0  0  0
   29.0558    9.7572   30.0161 H   0  0  0  0  0  0  0  0  0  0  0  0
   28.5236    7.9387   34.2926 H   0  0  0  0  0  0  0  0  0  0  0  0
   27.6876    9.4326   33.8890 H   0  0  0  0  0  0  0  0  0  0  0  0
   26.1458    7.4196   33.5754 H   0  0  0  0  0  0  0  0  0  0  0  0
   27.2749    6.7235   32.4405 H   0  0  0  0  0  0  0  0  0  0  0  0
   25.9515    9.4461   32.0775 H   0  0  0  0  0  0  0  0  0  0  0  0
   24.1806   12.0904   32.7068 H   0  0  0  0  0  0  0  0  0  0  0  0
   24.5512   12.4295   31.0184 H   0  0  0  0  0  0  0  0  0  0  0  0
   23.6443   13.5996   31.9762 H   0  0  0  0  0  0  0  0  0  0  0  0
   25.0680    6.7741   31.0252 H   0  0  0  0  0  0  0  0  0  0  0  0
   29.3748    8.9446   32.2712 S   0  0  0  0  0  0  0  0  0  0  0  0
   30.0826    7.7301   31.8628 O   0  0  0  0  0  0  0  0  0  0  0  0
   30.1745   10.0334   32.8427 O   0  0  0  0  0  0  0  0  0  0  0  0
  1  2  1  0
  1  9  1  0
  1 33  1  0
  1 34  1  0
  2 35  1  0
  2 36  1  0
  2 46  1  0
  3  4  1  0
  3 37  1  0
  3 38  1  0
  3 46  1  0
  4  9  1  0
  4 39  1  0
  4 40  1  0
  5  7  2  0
  5 12  1  0
  5 30  1  0
  6 17  1  0
  6 24  2  0
  6 25  1  0
  7 18  1  0
  7 20  1  0
  8 23  1  0
  8 26  2  0
  8 27  1  0
  9 27  1  0
  9 41  1  0
 10 11  1  0
 10 15  2  0
 10 16  1  0
 11 17  2  0
 11 31  1  0
 12 13  2  0
 12 21  1  0
 13 14  1  0
 13 28  1  0
 14 18  2  0
 14 29  1  0
 15 25  1  0
 15 26  1  0
 16 23  2  0
 16 32  1  0
 17 22  1  0
 18 22  1  0
 19 25  1  0
 19 42  1  0
 19 43  1  0
 19 44  1  0
 27 45  1  0
 46 47  2  0
 46 48  2  0
M  END
>  <r_exp_dg>  (2) 
-10.66

>  <AmberAM1BCCCache>  (2) 
gASV6wMAAAAAAABdlCiMFm51bXB5Ll9jb3JlLm11bHRpYXJyYXmUjAZzY2FsYXKUk5SMBW51bXB5lIwFZHR5cGWUk5SMAmY4lImIh5RSlChLA4wBPJROTk5K/////0r/////SwB0lGJDCOXi+qcmHOq/lIaUUpRoA2gJQwjDynb5Yc0NwJSGlFKUaANoCUMIw8p2+WHNDcCUhpRSlGgDaAlDCOXi+qcmHOq/lIaUUpRoA2gJQwiuju6w1uwCwJSGlFKUaANoCUMIu4yC+BmRIECUhpRSlGgDaAlDCPzbbK/nwvs/lIaUUpRoA2gJQwh9EyJ+W6glQJSGlFKUaANoCUMIhKv8e1WYA0CUhpRSlGgDaAlDCENlcSYegBPAlIaUUpRoA2gJQwiprwNC2zVzv5SGlFKUaANoCUMIiN8P8bGe+z+UhpRSlGgDaAlDCB+xuhDu9P+/lIaUUpRoA2gJQwiYLN1/d9Lwv5SGlFKUaANoCUMIGjqfbXtHHUCUhpRSlGgDaAlDCDRx7IluhxhAlIaUUpRoA2gJQwikMuGGic3gv5SGlFKUaANoCUMIZjj8fQqJ3T+UhpRSlGgDaAlDCP9kC5mgKOo/lIaUUpRoA2gJQwjH3wSLRvj3v5SGlFKUaANoCUMIOcILaAYm+b+UhpRSlGgDaAlDCLX55lJlyATAlIaUUpRoA2gJQwiGOGb7T/AhwJSGlFKUaANoCUMIJaR06QW8HMCUhpRSlGgDaAlDCAs0QN6O7hPAlIaUUpRoA2gJQwjunR8P4/8iwJSGlFKUaANoCUMIlgCDE2NnI8CUhpRSlGgDaAlDCEhC4fm9zv0/lIaUUpRoA2gJQwg4dIq9B7IAQJSGlFKUaANoCUMIixZc0FSN/z+UhpRSlGgDaAlDCBgnqgJa5P4/lIaUUpRoA2gJQwjgdbDvZhXbP5SGlFKUaANoCUMI+b1lek6s6T+UhpRSlGgDaAlDCPm9ZXpOrOk/lIaUUpRoA2gJQwjU4DrdMvn2P5SGlFKUaANoCUMI1OA63TL59j+UhpRSlGgDaAlDCNTgOt0y+fY/lIaUUpRoA2gJQwjU4DrdMvn2P5SGlFKUaANoCUMI+b1lek6s6T+UhpRSlGgDaAlDCPm9ZXpOrOk/lIaUUpRoA2gJQwj7riukyE3xP5SGlFKUaANoCUMIj6O0Gr+k6D+UhpRSlGgDaAlDCI+jtBq/pOg/lIaUUpRoA2gJQwiPo7Qav6ToP5SGlFKUaANoCUMIPbftc/i2FECUhpRSlGgDaAlDCFzWJR4vPi9AlIaUUpRoA2gJQwg5Sjpmy4gewJSGlFKUaANoCUMIOUo6ZsuIHsCUhpRSlGUu

>  <experimental dG reference units>  (2) 
kcal/mol

>  <experimental dG reference field>  (2) 
r_exp_dg

>  <kJ/mol experimental dG>  (2) 
-44.601440000000004

>  <kcal/mol experimental dG>  (2) 
-10.66

$$$$
2j
     RDKit          3D

 48 51  0  0  1  0  0  0  0  0999 V2000
   26.9870    8.8895   30.3654 C   0  0  0  0  0  0  0  0  0  0  0  0
   28.3334    9.5277   30.7525 C   0  0  0  0  0  0  0  0  0  0  0  0
   28.4604    8.2204   32.7705 C   0  0  0  0  0  0  0  0  0  0  0  0
   27.1134    7.5387   32.4729 C   0  0  0  0  0  0  0  0  0  0  0  0
   15.7653   10.5268   31.5941 C   0  0  0  0  0  0  0  0  0  0  0  0
   29.0939    8.6157   31.5501 O   0  0  0  0  0  0  0  0  0  0  0  0
   21.3330   12.5360   31.2560 C   0  0  0  0  0  0  0  0  0  0  0  0
   17.0269   11.1029   31.6862 C   0  0  0  0  0  0  0  0  0  0  0  0
   23.8140    8.4300   31.0230 C   0  0  0  0  0  0  0  0  0  0  0  0
   26.2277    8.4620   31.6280 C   0  0  0  0  0  0  0  0  0  0  0  0
   21.4260    9.7450   30.7760 C   0  0  0  0  0  0  0  0  0  0  0  0
   20.2000   10.4070   30.6460 C   0  0  0  0  0  0  0  0  0  0  0  0
   14.9845   10.7385   30.4629 C   0  0  0  0  0  0  0  0  0  0  0  0
   15.4624   11.5223   29.4199 C   0  0  0  0  0  0  0  0  0  0  0  0
   16.7195   12.1128   29.5072 C   0  0  0  0  0  0  0  0  0  0  0  0
   22.5820   10.4440   31.1400 C   0  0  0  0  0  0  0  0  0  0  0  0
   21.5200    8.3710   30.5390 C   0  0  0  0  0  0  0  0  0  0  0  0
   20.1110   11.7830   30.8770 C   0  0  0  0  0  0  0  0  0  0  0  0
   17.5082   11.9044   30.6428 C   0  0  0  0  0  0  0  0  0  0  0  0
   23.7887   12.5350   31.7910 C   0  0  0  0  0  0  0  0  0  0  0  0
   17.7813   10.8809   32.7862 F   0  0  0  0  0  0  0  0  0  0  0  0
   13.7680   10.1725   30.3607 F   0  0  0  0  0  0  0  0  0  0  0  0
   18.8370   12.6286   30.7676 C   0  0  0  0  0  0  0  0  0  0  0  0
   22.6990    7.7390   30.6640 N   0  0  0  0  0  0  0  0  0  0  0  0
   21.2570   13.7670   31.4640 O   0  0  0  0  0  0  0  0  0  0  0  0
   22.5560   11.8400   31.3820 N   0  0  0  0  0  0  0  0  0  0  0  0
   23.7460    9.7650   31.2550 N   0  0  0  0  0  0  0  0  0  0  0  0
   25.0065    7.7576   31.2475 N   0  0  0  0  0  0  0  0  0  0  0  0
   14.8504   11.6689   28.5449 H   0  0  0  0  0  0  0  0  0  0  0  0
   17.0682   12.7351   28.6944 H   0  0  0  0  0  0  0  0  0  0  0  0
   15.4073    9.8967   32.3918 H   0  0  0  0  0  0  0  0  0  0  0  0
   19.3113    9.8596   30.3633 H   0  0  0  0  0  0  0  0  0  0  0  0
   20.6585    7.7864   30.2469 H   0  0  0  0  0  0  0  0  0  0  0  0
   27.1655    8.0254   29.7240 H   0  0  0  0  0  0  0  0  0  0  0  0
   26.3963    9.5977   29.7831 H   0  0  0  0  0  0  0  0  0  0  0  0
   28.1786   10.4630   31.2946 H   0  0  0  0  0  0  0  0  0  0  0  0
   28.9045    9.7846   29.8608 H   0  0  0  0  0  0  0  0  0  0  0  0
   29.1183    7.5339   33.3051 H   0  0  0  0  0  0  0  0  0  0  0  0
   28.3223    9.0873   33.4203 H   0  0  0  0  0  0  0  0  0  0  0  0
   26.6128    7.2750   33.4053 H   0  0  0  0  0  0  0  0  0  0  0  0
   27.3105    6.6054   31.9446 H   0  0  0  0  0  0  0  0  0  0  0  0
   25.9777    9.3510   32.2149 H   0  0  0  0  0  0  0  0  0  0  0  0
   23.6420   13.6000   31.9759 H   0  0  0  0  0  0  0  0  0  0  0  0
   24.5505   12.4309   31.0182 H   0  0  0  0  0  0  0  0  0  0  0  0
   24.1798   12.0916   32.7071 H   0  0  0  0  0  0  0  0  0  0  0  0
   25.0591    6.7709   31.0164 H   0  0  0  0  0  0  0  0  0  0  0  0
   18.7512   13.2319   31.6731 H   0  0  0  0  0  0  0  0  0  0  0  0
   18.9558   13.3409   29.9475 H   0  0  0  0  0  0  0  0  0  0  0  0
  1  2  1  0
  1 10  1  0
  1 34  1  0
  1 35  1  0
  2  6  1  0
  2 36  1  0
  2 37  1  0
  3  4  1  0
  3  6  1  0
  3 38  1  0
  3 39  1  0
  4 10  1  0
  4 40  1  0
  4 41  1  0
  5  8  2  0
  5 13  1  0
  5 31  1  0
  7 18  1  0
  7 25  2  0
  7 26  1  0
  8 19  1  0
  8 21  1  0
  9 24  1  0
  9 27  2  0
  9 28  1  0
 10 28  1  0
 10 42  1  0
 11 12  1  0
 11 16  2  0
 11 17  1  0
 12 18  2  0
 12 32  1  0
 13 14  2  0
 13 22  1  0
 14 15  1  0
 14 29  1  0
 15 19  2  0
 15 30  1  0
 16 26  1  0
 16 27  1  0
 17 24  2  0
 17 33  1  0
 18 23  1  0
 19 23  1  0
 20 26  1  0
 20 43  1  0
 20 44  1  0
 20 45  1  0
 23 47  1  0
 23 48  1  0
 28 46  1  0
M  END
>  <r_exp_dg>  (3) 
-10.08

>  <AmberAM1BCCCache>  (3) 
gASV6wMAAAAAAABdlCiMFm51bXB5Ll9jb3JlLm11bHRpYXJyYXmUjAZzY2FsYXKUk5SMBW51bXB5lIwFZHR5cGWUk5SMAmY4lImIh5RSlChLA4wBPJROTk5K/////0r/////SwB0lGJDCGw1+lAy7fi/lIaUUpRoA2gJQwjyR7+nGTD4P5SGlFKUaANoCUMI8ke/pxkw+D+UhpRSlGgDaAlDCGw1+lAy7fi/lIaUUpRoA2gJQwgvtHQxnZ0DwJSGlFKUaANoCUMIYQsiYISVE8CUhpRSlGgDaAlDCO/affznuiBAlIaUUpRoA2gJQwgma0Dyl+P7P5SGlFKUaANoCUMIkoZdnF+gJUCUhpRSlGgDaAlDCNJdlBPwgQRAlIaUUpRoA2gJQwi/fDi+OagTwJSGlFKUaANoCUMI48t268J0tD+UhpRSlGgDaAlDCGxmvJrfE/w/lIaUUpRoA2gJQwiEekBHc88AwJSGlFKUaANoCUMI/MMHZHDr67+UhpRSlGgDaAlDCCThfjp2Lh1AlIaUUpRoA2gJQwibGo6CRVYYQJSGlFKUaANoCUMI8Xn0iB3gAsCUhpRSlGgDaAlDCDe8dah6ove/lIaUUpRoA2gJQwj2gPDyJILqP5SGlFKUaANoCUMIUgez++zD+r+UhpRSlGgDaAlDCIMi6vJQrvm/lIaUUpRoA2gJQwgk6B90PorNP5SGlFKUaANoCUMI7QaEeDXpIcCUhpRSlGgDaAlDCKkeM2nYCx7AlIaUUpRoA2gJQwj2DxNIZ+kTwJSGlFKUaANoCUMIhglHGHMVI8CUhpRSlGgDaAlDCIxubEjPZCPAlIaUUpRoA2gJQwgt4+OEYTr9P5SGlFKUaANoCUMIIM4TMkoHAECUhpRSlGgDaAlDCFq9w8ievP4/lIaUUpRoA2gJQwiM//uRsxj8P5SGlFKUaANoCUMIpQdHIh4z2D+UhpRSlGgDaAlDCN4gB/WfMec/lIaUUpRoA2gJQwjeIAf1nzHnP5SGlFKUaANoCUMI2P5mwA9y4z+UhpRSlGgDaAlDCNj+ZsAPcuM/lIaUUpRoA2gJQwjY/mbAD3LjP5SGlFKUaANoCUMI2P5mwA9y4z+UhpRSlGgDaAlDCN4gB/WfMec/lIaUUpRoA2gJQwjeIAf1nzHnP5SGlFKUaANoCUMIm1SyhiSJ8D+UhpRSlGgDaAlDCC6MJXbZBOg/lIaUUpRoA2gJQwgujCV22QToP5SGlFKUaANoCUMILowldtkE6D+UhpRSlGgDaAlDCKRgj2zPhRRAlIaUUpRoA2gJQwibLdWfcsrrP5SGlFKUaANoCUMImy3Vn3LK6z+UhpRSlGUu

>  <experimental dG reference units>  (3) 
kcal/mol

>  <experimental dG reference field>  (3) 
r_exp_dg

>  <kJ/mol experimental dG>  (3) 
-42.17472

>  <kcal/mol experimental dG>  (3) 
-10.08

$$$$
2l
     RDKit          3D

 49 52  0  0  1  0  0  0  0  0999 V2000
   26.9894    8.8893   30.3716 C   0  0  0  0  0  0  0  0  0  0  0  0
   28.3348    9.5274   30.7623 C   0  0  0  0  0  0  0  0  0  0  0  0
   28.4552    8.2215   32.7815 C   0  0  0  0  0  0  0  0  0  0  0  0
   27.1090    7.5398   32.4804 C   0  0  0  0  0  0  0  0  0  0  0  0
   15.9287   10.6067   31.6555 C   0  0  0  0  0  0  0  0  0  0  0  0
   29.0927    8.6158   31.5628 O   0  0  0  0  0  0  0  0  0  0  0  0
   21.3330   12.5360   31.2560 C   0  0  0  0  0  0  0  0  0  0  0  0
   17.2146   11.1344   31.7489 C   0  0  0  0  0  0  0  0  0  0  0  0
   23.8140    8.4300   31.0230 C   0  0  0  0  0  0  0  0  0  0  0  0
   26.2263    8.4628   31.6322 C   0  0  0  0  0  0  0  0  0  0  0  0
   21.4260    9.7450   30.7760 C   0  0  0  0  0  0  0  0  0  0  0  0
   20.2000   10.4070   30.6460 C   0  0  0  0  0  0  0  0  0  0  0  0
   15.1501   10.8623   30.5307 C   0  0  0  0  0  0  0  0  0  0  0  0
   15.6445   11.6665   29.5084 C   0  0  0  0  0  0  0  0  0  0  0  0
   16.9259   12.2085   29.6008 C   0  0  0  0  0  0  0  0  0  0  0  0
   22.5820   10.4440   31.1400 C   0  0  0  0  0  0  0  0  0  0  0  0
   21.5200    8.3710   30.5390 C   0  0  0  0  0  0  0  0  0  0  0  0
   20.1110   11.7830   30.8770 C   0  0  0  0  0  0  0  0  0  0  0  0
   17.7271   11.9272   30.7087 C   0  0  0  0  0  0  0  0  0  0  0  0
   23.7592   12.5456   31.8587 C   0  0  0  0  0  0  0  0  0  0  0  0
   13.9219   10.3194   30.4180 F   0  0  0  0  0  0  0  0  0  0  0  0
   18.9660   12.5221   30.7784 O   0  0  0  0  0  0  0  0  0  0  0  0
   22.6990    7.7390   30.6640 N   0  0  0  0  0  0  0  0  0  0  0  0
   21.2570   13.7670   31.4640 O   0  0  0  0  0  0  0  0  0  0  0  0
   22.5560   11.8400   31.3820 N   0  0  0  0  0  0  0  0  0  0  0  0
   23.7460    9.7650   31.2550 N   0  0  0  0  0  0  0  0  0  0  0  0
   25.0065    7.7579   31.2481 N   0  0  0  0  0  0  0  0  0  0  0  0
   15.0302   11.8626   28.6437 H   0  0  0  0  0  0  0  0  0  0  0  0
   15.5466    9.9773   32.4448 H   0  0  0  0  0  0  0  0  0  0  0  0
   19.3170    9.8548   30.3581 H   0  0  0  0  0  0  0  0  0  0  0  0
   20.6585    7.7868   30.2468 H   0  0  0  0  0  0  0  0  0  0  0  0
   27.1697    8.0247   29.7313 H   0  0  0  0  0  0  0  0  0  0  0  0
   26.4005    9.5972   29.7872 H   0  0  0  0  0  0  0  0  0  0  0  0
   28.1785   10.4632   31.3032 H   0  0  0  0  0  0  0  0  0  0  0  0
   28.9086    9.7833   29.8719 H   0  0  0  0  0  0  0  0  0  0  0  0
   29.1113    7.5353   33.3186 H   0  0  0  0  0  0  0  0  0  0  0  0
   28.3152    9.0888   33.4303 H   0  0  0  0  0  0  0  0  0  0  0  0
   26.6054    7.2773   33.4115 H   0  0  0  0  0  0  0  0  0  0  0  0
   27.3070    6.6059   31.9534 H   0  0  0  0  0  0  0  0  0  0  0  0
   25.9748    9.3521   32.2181 H   0  0  0  0  0  0  0  0  0  0  0  0
   24.6532   12.0496   31.4773 H   0  0  0  0  0  0  0  0  0  0  0  0
   23.7945   13.5544   31.4429 H   0  0  0  0  0  0  0  0  0  0  0  0
   25.0604    6.7710   31.0179 H   0  0  0  0  0  0  0  0  0  0  0  0
   23.8086   12.6202   33.3909 C   0  0  0  0  0  0  0  0  0  0  0  0
   24.7926   12.9289   33.7438 H   0  0  0  0  0  0  0  0  0  0  0  0
   23.0853   13.3393   33.7712 H   0  0  0  0  0  0  0  0  0  0  0  0
   23.5610   11.6575   33.8330 H   0  0  0  0  0  0  0  0  0  0  0  0
   17.9615   10.8669   32.8445 F   0  0  0  0  0  0  0  0  0  0  0  0
   17.3045   12.8395   28.8092 H   0  0  0  0  0  0  0  0  0  0  0  0
  1  2  1  0
  1 10  1  0
  1 32  1  0
  1 33  1  0
  2  6  1  0
  2 34  1  0
  2 35  1  0
  3  4  1  0
  3  6  1  0
  3 36  1  0
  3 37  1  0
  4 10  1  0
  4 38  1  0
  4 39  1  0
  5  8  2  0
  5 13  1  0
  5 29  1  0
  7 18  1  0
  7 24  2  0
  7 25  1  0
  8 19  1  0
  8 48  1  0
  9 23  1  0
  9 26  2  0
  9 27  1  0
 10 27  1  0
 10 40  1  0
 11 12  1  0
 11 16  2  0
 11 17  1  0
 12 18  2  0
 12 30  1  0
 13 14  2  0
 13 21  1  0
 14 15  1  0
 14 28  1  0
 15 19  2  0
 15 49  1  0
 16 25  1  0
 16 26  1  0
 17 23  2  0
 17 31  1  0
 18 22  1  0
 19 22  1  0
 20 25  1  0
 20 41  1  0
 20 42  1  0
 20 44  1  0
 27 43  1  0
 44 45  1  0
 44 46  1  0
 44 47  1  0
M  END
>  <r_exp_dg>  (4) 
-12.26

>  <AmberAM1BCCCache>  (4) 
gASV/gMAAAAAAABdlCiMFm51bXB5Ll9jb3JlLm11bHRpYXJyYXmUjAZzY2FsYXKUk5SMBW51bXB5lIwFZHR5cGWUk5SMAmY4lImIh5RSlChLA4wBPJROTk5K/////0r/////SwB0lGJDCK+0XU/n0/i/lIaUUpRoA2gJQwhkGY/xjyH4P5SGlFKUaANoCUMIZBmP8Y8h+D+UhpRSlGgDaAlDCK+0XU/n0/i/lIaUUpRoA2gJQwi9cQpkxqACwJSGlFKUaANoCUMIZqDsxKx6E8CUhpRSlGgDaAlDCH4Q4oE+hiBAlIaUUpRoA2gJQwjJKEWn6Zn7P5SGlFKUaANoCUMI3w1DEPq7JUCUhpRSlGgDaAlDCApR0o00kgRAlIaUUpRoA2gJQwgzyWME5OQTwJSGlFKUaANoCUMIrzKgiNRsoj+UhpRSlGgDaAlDCG1A2VyDqPo/lIaUUpRoA2gJQwgLrRSnP0L/v5SGlFKUaANoCUMIXU6ga86y8r+UhpRSlGgDaAlDCE4rPlDukh1AlIaUUpRoA2gJQwiKd8qGyX0YQJSGlFKUaANoCUMI6pRBl2VU47+UhpRSlGgDaAlDCFgnoZVWFuI/lIaUUpRoA2gJQwjcRvhV+jDwP5SGlFKUaANoCUMIf6bRSL5k+b+UhpRSlGgDaAlDCPam4NXilgTAlIaUUpRoA2gJQwixg2iZceUhwJSGlFKUaANoCUMIjWsX/gK8HMCUhpRSlGgDaAlDCG1HkuP+9hPAlIaUUpRoA2gJQwhf5J1VTCUjwJSGlFKUaANoCUMIIepvUx1tI8CUhpRSlGgDaAlDCKGSXDOKgf0/lIaUUpRoA2gJQwhYYzTIVmT/P5SGlFKUaANoCUMI/HrIffBy/j+UhpRSlGgDaAlDCHiOJpZgdtk/lIaUUpRoA2gJQwiAs341MrXmP5SGlFKUaANoCUMIgLN+NTK15j+UhpRSlGgDaAlDCHHDNxCfB+Q/lIaUUpRoA2gJQwhxwzcQnwfkP5SGlFKUaANoCUMIccM3EJ8H5D+UhpRSlGgDaAlDCHHDNxCfB+Q/lIaUUpRoA2gJQwiAs341MrXmP5SGlFKUaANoCUMIgLN+NTK15j+UhpRSlGgDaAlDCAZyMcENg/A/lIaUUpRoA2gJQwiIVcO2Y3/sP5SGlFKUaANoCUMIiFXDtmN/7D+UhpRSlGgDaAlDCAulfIR2ohRAlIaUUpRoA2gJQwj7FzJ9Bt70v5SGlFKUaANoCUMIC5tIExzJ4T+UhpRSlGgDaAlDCAubSBMcyeE/lIaUUpRoA2gJQwgLm0gTHMnhP5SGlFKUaANoCUMIjGx3f+me97+UhpRSlGgDaAlDCBpYz3eGNABAlIaUUpRlLg==

>  <experimental dG reference units>  (4) 
kcal/mol

>  <experimental dG reference field>  (4) 
r_exp_dg

>  <kJ/mol experimental dG>  (4) 
-51.29584

>  <kcal/mol experimental dG>  (4) 
-12.26

$$$$
2t
     RDKit          3D

 47 50  0  0  1  0  0  0  0  0999 V2000
   26.9900    8.8918   30.3730 C   0  0  0  0  0  0  0  0  0  0  0  0
   28.3381    9.5249   30.7635 C   0  0  0  0  0  0  0  0  0  0  0  0
   28.4581    8.2123   32.7786 C   0  0  0  0  0  0  0  0  0  0  0  0
   27.1103    7.5342   32.4766 C   0  0  0  0  0  0  0  0  0  0  0  0
   15.9293   10.6056   31.6554 C   0  0  0  0  0  0  0  0  0  0  0  0
   29.0946    8.6088   31.5601 O   0  0  0  0  0  0  0  0  0  0  0  0
   21.3330   12.5360   31.2560 C   0  0  0  0  0  0  0  0  0  0  0  0
   17.2150   11.1335   31.7486 C   0  0  0  0  0  0  0  0  0  0  0  0
   23.8140    8.4300   31.0230 C   0  0  0  0  0  0  0  0  0  0  0  0
   26.2275    8.4612   31.6327 C   0  0  0  0  0  0  0  0  0  0  0  0
   21.4260    9.7450   30.7760 C   0  0  0  0  0  0  0  0  0  0  0  0
   20.2000   10.4070   30.6460 C   0  0  0  0  0  0  0  0  0  0  0  0
   15.1502   10.8618   30.5310 C   0  0  0  0  0  0  0  0  0  0  0  0
   15.6443   11.6667   29.5090 C   0  0  0  0  0  0  0  0  0  0  0  0
   16.9256   12.2092   29.6014 C   0  0  0  0  0  0  0  0  0  0  0  0
   22.5820   10.4440   31.1400 C   0  0  0  0  0  0  0  0  0  0  0  0
   21.5200    8.3710   30.5390 C   0  0  0  0  0  0  0  0  0  0  0  0
   20.1110   11.7830   30.8770 C   0  0  0  0  0  0  0  0  0  0  0  0
   17.7270   11.9274   30.7089 C   0  0  0  0  0  0  0  0  0  0  0  0
   23.7571   12.5409   31.8407 C   0  0  0  0  0  0  0  0  0  0  0  0
   17.9631   10.8644   32.8428 F   0  0  0  0  0  0  0  0  0  0  0  0
   13.9222   10.3185   30.4183 F   0  0  0  0  0  0  0  0  0  0  0  0
   18.9662   12.5222   30.7787 O   0  0  0  0  0  0  0  0  0  0  0  0
   22.6990    7.7390   30.6640 N   0  0  0  0  0  0  0  0  0  0  0  0
   21.2570   13.7670   31.4640 O   0  0  0  0  0  0  0  0  0  0  0  0
   22.5560   11.8400   31.3820 N   0  0  0  0  0  0  0  0  0  0  0  0
   23.7460    9.7650   31.2550 N   0  0  0  0  0  0  0  0  0  0  0  0
   25.0071    7.7583   31.2469 N   0  0  0  0  0  0  0  0  0  0  0  0
   15.0297   11.8631   28.6446 H   0  0  0  0  0  0  0  0  0  0  0  0
   17.3034   12.8408   28.8100 H   0  0  0  0  0  0  0  0  0  0  0  0
   15.5476    9.9755   32.4443 H   0  0  0  0  0  0  0  0  0  0  0  0
   19.3168    9.8551   30.3575 H   0  0  0  0  0  0  0  0  0  0  0  0
   20.6588    7.7864   30.2462 H   0  0  0  0  0  0  0  0  0  0  0  0
   27.1677    8.0293   29.7292 H   0  0  0  0  0  0  0  0  0  0  0  0
   26.4020    9.6029   29.7914 H   0  0  0  0  0  0  0  0  0  0  0  0
   28.1857   10.4595   31.3073 H   0  0  0  0  0  0  0  0  0  0  0  0
   28.9113    9.7816   29.8730 H   0  0  0  0  0  0  0  0  0  0  0  0
   29.1135    7.5231   33.3127 H   0  0  0  0  0  0  0  0  0  0  0  0
   28.3207    9.0779   33.4304 H   0  0  0  0  0  0  0  0  0  0  0  0
   26.6076    7.2688   33.4074 H   0  0  0  0  0  0  0  0  0  0  0  0
   27.3069    6.6020   31.9463 H   0  0  0  0  0  0  0  0  0  0  0  0
   25.9769    9.3478   32.2229 H   0  0  0  0  0  0  0  0  0  0  0  0
   25.0608    6.7709   31.0184 H   0  0  0  0  0  0  0  0  0  0  0  0
   23.7711   12.6979   33.3007 C   0  0  0  0  0  0  0  0  0  0  0  0
   23.7804   12.8214   34.4499 N   0  0  0  0  0  0  0  0  0  0  0  0
   23.8174   13.5361   31.4002 H   0  0  0  0  0  0  0  0  0  0  0  0
   24.6688   12.0221   31.5466 H   0  0  0  0  0  0  0  0  0  0  0  0
  1  2  1  0
  1 10  1  0
  1 34  1  0
  1 35  1  0
  2  6  1  0
  2 36  1  0
  2 37  1  0
  3  4  1  0
  3  6  1  0
  3 38  1  0
  3 39  1  0
  4 10  1  0
  4 40  1  0
  4 41  1  0
  5  8  2  0
  5 13  1  0
  5 31  1  0
  7 18  1  0
  7 25  2  0
  7 26  1  0
  8 19  1  0
  8 21  1  0
  9 24  1  0
  9 27  2  0
  9 28  1  0
 10 28  1  0
 10 42  1  0
 11 12  1  0
 11 16  2  0
 11 17  1  0
 12 18  2  0
 12 32  1  0
 13 14  2  0
 13 22  1  0
 14 15  1  0
 14 29  1  0
 15 19  2  0
 15 30  1  0
 16 26  1  0
 16 27  1  0
 17 24  2  0
 17 33  1  0
 18 23  1  0
 19 23  1  0
 20 26  1  0
 20 44  1  0
 20 46  1  0
 20 47  1  0
 28 43  1  0
 44 45  3  0
M  END
>  <r_exp_dg>  (5) 
-11.85

>  <AmberAM1BCCCache>  (5) 
gASV2AMAAAAAAABdlCiMFm51bXB5Ll9jb3JlLm11bHRpYXJyYXmUjAZzY2FsYXKUk5SMBW51bXB5lIwFZHR5cGWUk5SMAmY4lImIh5RSlChLA4wBPJROTk5K/////0r/////SwB0lGJDCOuIzhD9zPi/lIaUUpRoA2gJQwgIddvyRUr4P5SGlFKUaANoCUMICHXb8kVK+D+UhpRSlGgDaAlDCOuIzhD9zPi/lIaUUpRoA2gJQwgvoYlNUWwDwJSGlFKUaANoCUMIsoBLWPCIE8CUhpRSlGgDaAlDCK+fePU6xyBAlIaUUpRoA2gJQwhWn6LAWLX7P5SGlFKUaANoCUMIHAV7ohDsJUCUhpRSlGgDaAlDCOlqGoqV7wRAlIaUUpRoA2gJQwjh8ICgt6cTwJSGlFKUaANoCUMIR+CY8LmivT+UhpRSlGgDaAlDCJqAyIcq7/w/lIaUUpRoA2gJQwg/bNm6320AwJSGlFKUaANoCUMI+F0F88ov7L+UhpRSlGgDaAlDCLHnwfVIZR1AlIaUUpRoA2gJQwgXX4eXN6IYQJSGlFKUaANoCUMIvoOTfAiD4r+UhpRSlGgDaAlDCFQfjHzupdQ/lIaUUpRoA2gJQwjEuKzjeLz8P5SGlFKUaANoCUMI4QuBR9Cu+L+UhpRSlGgDaAlDCMkEO8Q79/i/lIaUUpRoA2gJQwhClnqpR+EEwJSGlFKUaANoCUMIp4PiGszNIcCUhpRSlGgDaAlDCP2tskK69RzAlIaUUpRoA2gJQwiv96BEoWcUwJSGlFKUaANoCUMI9uFVq8olI8CUhpRSlGgDaAlDCLrnJ6mbbSPAlIaUUpRoA2gJQwgs/A5cviH+P5SGlFKUaANoCUMIwcTmCERaAUCUhpRSlGgDaAlDCOTZkeHFf/8/lIaUUpRoA2gJQwhw3TQjkFv/P5SGlFKUaANoCUMIX3B31kmg2z+UhpRSlGgDaAlDCJp+4szCQec/lIaUUpRoA2gJQwiafuLMwkHnP5SGlFKUaANoCUMIOFqAbFaa4z+UhpRSlGgDaAlDCDhagGxWmuM/lIaUUpRoA2gJQwg4WoBsVprjP5SGlFKUaANoCUMIOFqAbFaa4z+UhpRSlGgDaAlDCJp+4szCQec/lIaUUpRoA2gJQwiafuLMwkHnP5SGlFKUaANoCUMIP3jGIuAD8T+UhpRSlGgDaAlDCMGixlXl6RRAlIaUUpRoA2gJQwiBNGMCiwUDQJSGlFKUaANoCUMIL5SndCe3EMCUhpRSlGgDaAlDCBamMDK9SvQ/lIaUUpRoA2gJQwgWpjAyvUr0P5SGlFKUZS4=

>  <experimental dG reference units>  (5) 
kcal/mol

>  <experimental dG reference field>  (5) 
r_exp_dg

>  <kJ/mol experimental dG>  (5) 
-49.5804

>  <kcal/mol experimental dG>  (5) 
-11.85

$$$$
2aa
     RDKit          3D

 43 45  0  0  1  0  0  0  0  0999 V2000
   15.9287   10.6055   31.6570 C   0  0  0  0  0  0  0  0  0  0  0  0
   21.3330   12.5360   31.2560 C   0  0  0  0  0  0  0  0  0  0  0  0
   17.2146   11.1333   31.7501 C   0  0  0  0  0  0  0  0  0  0  0  0
   23.8140    8.4300   31.0230 C   0  0  0  0  0  0  0  0  0  0  0  0
   26.2442    8.3668   31.5686 C   0  0  0  0  0  0  0  0  0  0  0  0
   21.4260    9.7450   30.7760 C   0  0  0  0  0  0  0  0  0  0  0  0
   20.2000   10.4070   30.6460 C   0  0  0  0  0  0  0  0  0  0  0  0
   15.1496   10.8617   30.5326 C   0  0  0  0  0  0  0  0  0  0  0  0
   15.6434   11.6667   29.5107 C   0  0  0  0  0  0  0  0  0  0  0  0
   16.9249   12.2088   29.6029 C   0  0  0  0  0  0  0  0  0  0  0  0
   22.5820   10.4440   31.1400 C   0  0  0  0  0  0  0  0  0  0  0  0
   21.5200    8.3710   30.5390 C   0  0  0  0  0  0  0  0  0  0  0  0
   20.1110   11.7830   30.8770 C   0  0  0  0  0  0  0  0  0  0  0  0
   17.7266   11.9268   30.7102 C   0  0  0  0  0  0  0  0  0  0  0  0
   23.7888   12.5349   31.7908 C   0  0  0  0  0  0  0  0  0  0  0  0
   17.9620   10.8649   32.8452 F   0  0  0  0  0  0  0  0  0  0  0  0
   13.9215   10.3185   30.4201 F   0  0  0  0  0  0  0  0  0  0  0  0
   18.9656   12.5218   30.7796 O   0  0  0  0  0  0  0  0  0  0  0  0
   22.6990    7.7390   30.6640 N   0  0  0  0  0  0  0  0  0  0  0  0
   21.2570   13.7670   31.4640 O   0  0  0  0  0  0  0  0  0  0  0  0
   22.5560   11.8400   31.3820 N   0  0  0  0  0  0  0  0  0  0  0  0
   23.7460    9.7650   31.2550 N   0  0  0  0  0  0  0  0  0  0  0  0
   24.9566    7.7149   31.3059 N   0  0  0  0  0  0  0  0  0  0  0  0
   15.0288   11.8633   28.6463 H   0  0  0  0  0  0  0  0  0  0  0  0
   17.3029   12.8404   28.8116 H   0  0  0  0  0  0  0  0  0  0  0  0
   15.5470    9.9755   32.4460 H   0  0  0  0  0  0  0  0  0  0  0  0
   19.3168    9.8549   30.3583 H   0  0  0  0  0  0  0  0  0  0  0  0
   20.6588    7.7867   30.2461 H   0  0  0  0  0  0  0  0  0  0  0  0
   26.0477    9.3934   31.8858 H   0  0  0  0  0  0  0  0  0  0  0  0
   24.1786   12.0939   32.7087 H   0  0  0  0  0  0  0  0  0  0  0  0
   23.6440   13.6008   31.9726 H   0  0  0  0  0  0  0  0  0  0  0  0
   24.5516   12.4280   31.0193 H   0  0  0  0  0  0  0  0  0  0  0  0
   24.9552    6.7429   31.0216 H   0  0  0  0  0  0  0  0  0  0  0  0
   26.9498    7.6923   32.7695 C   0  0  0  0  0  0  0  0  0  0  0  0
   26.2681    7.6736   33.6207 H   0  0  0  0  0  0  0  0  0  0  0  0
   27.7985    8.2926   33.1006 H   0  0  0  0  0  0  0  0  0  0  0  0
   27.1351    8.4860   30.2984 C   0  0  0  0  0  0  0  0  0  0  0  0
   27.7516    9.3833   30.3721 H   0  0  0  0  0  0  0  0  0  0  0  0
   27.8361    7.6559   30.2624 H   0  0  0  0  0  0  0  0  0  0  0  0
   27.3594    6.3596   32.5140 O   0  0  0  0  0  0  0  0  0  0  0  0
   26.6787    5.9351   31.9568 H   0  0  0  0  0  0  0  0  0  0  0  0
   26.4268    8.5650   29.0639 O   0  0  0  0  0  0  0  0  0  0  0  0
   26.9947    8.2349   28.3476 H   0  0  0  0  0  0  0  0  0  0  0  0
  1  3  2  0
  1  8  1  0
  1 26  1  0
  2 13  1  0
  2 20  2  0
  2 21  1  0
  3 14  1  0
  3 16  1  0
  4 19  1  0
  4 22  2  0
  4 23  1  0
  5 23  1  0
  5 29  1  0
  5 34  1  0
  5 37  1  0
  6  7  1  0
  6 11  2  0
  6 12  1  0
  7 13  2  0
  7 27  1  0
  8  9  2  0
  8 17  1  0
  9 10  1  0
  9 24  1  0
 10 14  2  0
 10 25  1  0
 11 21  1  0
 11 22  1  0
 12 19  2  0
 12 28  1  0
 13 18  1  0
 14 18  1  0
 15 21  1  0
 15 30  1  0
 15 31  1  0
 15 32  1  0
 23 33  1  0
 34 35  1  0
 34 36  1  0
 34 40  1  0
 37 38  1  0
 37 39  1  0
 37 42  1  0
 40 41  1  0
 42 43  1  0
M  END
>  <r_exp_dg>  (6) 
-9.27

>  <AmberAM1BCCCache>  (6) 
gASVjAMAAAAAAABdlCiMFm51bXB5Ll9jb3JlLm11bHRpYXJyYXmUjAZzY2FsYXKUk5SMBW51bXB5lIwFZHR5cGWUk5SMAmY4lImIh5RSlChLA4wBPJROTk5K/////0r/////SwB0lGJDCAzETUS92AHAlIaUUpRoA2gJQwjUQTY353sgQJSGlFKUaANoCUMITG5XBab++z+UhpRSlGgDaAlDCM+IhIo50iVAlIaUUpRoA2gJQwj4rDUmM5T9P5SGlFKUaANoCUMIVZzdyQTfE8CUhpRSlGgDaAlDCDRybnj5pp4/lIaUUpRoA2gJQwh2HpZaew35P5SGlFKUaANoCUMIo4ierY2L/b+UhpRSlGgDaAlDCCMuq6TB8fa/lIaUUpRoA2gJQwh3Kejd72odQJSGlFKUaANoCUMIC6KOlcybGECUhpRSlGgDaAlDCPgtEMNrJeO/lIaUUpRoA2gJQwhrN11uFsfnP5SGlFKUaANoCUMIKpoudyL36T+UhpRSlGgDaAlDCLjQ8koGlva/lIaUUpRoA2gJQwjPUjPk2JD5v5SGlFKUaANoCUMIbiRdIe0gBMCUhpRSlGgDaAlDCBNsROaT7iHAlIaUUpRoA2gJQwjP5HurMjYcwJSGlFKUaANoCUMIEX8Khm8EFMCUhpRSlGgDaAlDCHfmqaQ5LSPAlIaUUpRoA2gJQwhU0WqKUYIjwJSGlFKUaANoCUMIUub6l29V/T+UhpRSlGgDaAlDCJyqc/pWrP0/lIaUUpRoA2gJQwjV30lsc6L/P5SGlFKUaANoCUMI7gDm0H1Q/j+UhpRSlGgDaAlDCGAlhvjz+tk/lIaUUpRoA2gJQwiQST2TCTXxP5SGlFKUaANoCUMIWQ42rRGV6D+UhpRSlGgDaAlDCFkONq0Rleg/lIaUUpRoA2gJQwhZDjatEZXoP5SGlFKUaANoCUMIyCsY10YoFUCUhpRSlGgDaAlDCKSX0WnwQvY/lIaUUpRoA2gJQwgmweavkFPkP5SGlFKUaANoCUMIJsHmr5BT5D+UhpRSlGgDaAlDCKSX0WnwQvY/lIaUUpRoA2gJQwgmweavkFPkP5SGlFKUaANoCUMIJsHmr5BT5D+UhpRSlGgDaAlDCCJImXKUVRzAlIaUUpRoA2gJQwggoYrFRooTQJSGlFKUaANoCUMIIkiZcpRVHMCUhpRSlGgDaAlDCCChisVGihNAlIaUUpRlLg==

>  <experimental dG reference units>  (6) 
kcal/mol

>  <experimental dG reference field>  (6) 
r_exp_dg

>  <kJ/mol experimental dG>  (6) 
-38.78568

>  <kcal/mol experimental dG>  (6) 
-9.27

$$$$
2ee
     RDKit          3D

 52 55  0  0  1  0  0  0  0  0999 V2000
   27.3140    8.4689   30.7896 C   0  0  0  0  0  0  0  0  0  0  0  0
   28.6231    8.9948   31.4301 C   0  0  0  0  0  0  0  0  0  0  0  0
   27.9281    8.0138   33.6391 C   0  0  0  0  0  0  0  0  0  0  0  0
   26.6385    7.4672   32.9936 C   0  0  0  0  0  0  0  0  0  0  0  0
   15.9288   10.6053   31.6555 C   0  0  0  0  0  0  0  0  0  0  0  0
   28.9522    8.1140   32.5765 N   0  0  0  0  0  0  0  0  0  0  0  0
   21.3330   12.5360   31.2560 C   0  0  0  0  0  0  0  0  0  0  0  0
   17.2146   11.1331   31.7489 C   0  0  0  0  0  0  0  0  0  0  0  0
   23.8140    8.4300   31.0230 C   0  0  0  0  0  0  0  0  0  0  0  0
   26.1843    8.3524   31.8242 C   0  0  0  0  0  0  0  0  0  0  0  0
   21.4260    9.7450   30.7760 C   0  0  0  0  0  0  0  0  0  0  0  0
   20.2000   10.4070   30.6460 C   0  0  0  0  0  0  0  0  0  0  0  0
   15.1500   10.8613   30.5308 C   0  0  0  0  0  0  0  0  0  0  0  0
   15.6442   11.6658   29.5087 C   0  0  0  0  0  0  0  0  0  0  0  0
   16.9256   12.2080   29.6012 C   0  0  0  0  0  0  0  0  0  0  0  0
   22.5820   10.4440   31.1400 C   0  0  0  0  0  0  0  0  0  0  0  0
   21.5200    8.3710   30.5390 C   0  0  0  0  0  0  0  0  0  0  0  0
   20.1110   11.7830   30.8770 C   0  0  0  0  0  0  0  0  0  0  0  0
   17.7269   11.9265   30.7090 C   0  0  0  0  0  0  0  0  0  0  0  0
   23.7887   12.5344   31.7923 C   0  0  0  0  0  0  0  0  0  0  0  0
   17.9617   10.8649   32.8442 F   0  0  0  0  0  0  0  0  0  0  0  0
   13.9218   10.3184   30.4182 F   0  0  0  0  0  0  0  0  0  0  0  0
   18.9657   12.5218   30.7790 O   0  0  0  0  0  0  0  0  0  0  0  0
   22.6990    7.7390   30.6640 N   0  0  0  0  0  0  0  0  0  0  0  0
   21.2570   13.7670   31.4640 O   0  0  0  0  0  0  0  0  0  0  0  0
   22.5560   11.8400   31.3820 N   0  0  0  0  0  0  0  0  0  0  0  0
   23.7460    9.7650   31.2550 N   0  0  0  0  0  0  0  0  0  0  0  0
   25.0053    7.7472   31.2106 N   0  0  0  0  0  0  0  0  0  0  0  0
   15.0298   11.8622   28.6442 H   0  0  0  0  0  0  0  0  0  0  0  0
   17.3040   12.8394   28.8099 H   0  0  0  0  0  0  0  0  0  0  0  0
   15.5469    9.9755   32.4446 H   0  0  0  0  0  0  0  0  0  0  0  0
   19.3170    9.8548   30.3580 H   0  0  0  0  0  0  0  0  0  0  0  0
   20.6585    7.7868   30.2465 H   0  0  0  0  0  0  0  0  0  0  0  0
   27.5006    7.4948   30.3352 H   0  0  0  0  0  0  0  0  0  0  0  0
   27.0130    9.1333   29.9785 H   0  0  0  0  0  0  0  0  0  0  0  0
   28.4833   10.0133   31.7962 H   0  0  0  0  0  0  0  0  0  0  0  0
   29.4194    9.0380   30.6836 H   0  0  0  0  0  0  0  0  0  0  0  0
   28.2151    7.3888   34.4848 H   0  0  0  0  0  0  0  0  0  0  0  0
   27.7623    9.0150   34.0386 H   0  0  0  0  0  0  0  0  0  0  0  0
   25.8501    7.4013   33.7441 H   0  0  0  0  0  0  0  0  0  0  0  0
   26.8170    6.4458   32.6520 H   0  0  0  0  0  0  0  0  0  0  0  0
   25.9540    9.3511   32.2045 H   0  0  0  0  0  0  0  0  0  0  0  0
   24.1796   12.0901   32.7081 H   0  0  0  0  0  0  0  0  0  0  0  0
   24.5512   12.4304   31.0201 H   0  0  0  0  0  0  0  0  0  0  0  0
   23.6434   13.5995   31.9780 H   0  0  0  0  0  0  0  0  0  0  0  0
   25.0276    6.7520   31.0132 H   0  0  0  0  0  0  0  0  0  0  0  0
   30.1593    7.4976   32.6642 C   0  0  0  0  0  0  0  0  0  0  0  0
   31.0678    7.6931   31.8568 O   0  0  0  0  0  0  0  0  0  0  0  0
   30.4381    6.5288   33.8139 C   0  0  0  0  0  0  0  0  0  0  0  0
   29.6723    5.7543   33.8581 H   0  0  0  0  0  0  0  0  0  0  0  0
   31.3974    6.0312   33.6726 H   0  0  0  0  0  0  0  0  0  0  0  0
   30.4720    7.0561   34.7668 H   0  0  0  0  0  0  0  0  0  0  0  0
  1  2  1  0
  1 10  1  0
  1 34  1  0
  1 35  1  0
  2  6  1  0
  2 36  1  0
  2 37  1  0
  3  4  1  0
  3  6  1  0
  3 38  1  0
  3 39  1  0
  4 10  1  0
  4 40  1  0
  4 41  1  0
  5  8  2  0
  5 13  1  0
  5 31  1  0
  6 47  1  0
  7 18  1  0
  7 25  2  0
  7 26  1  0
  8 19  1  0
  8 21  1  0
  9 24  1  0
  9 27  2  0
  9 28  1  0
 10 28  1  0
 10 42  1  0
 11 12  1  0
 11 16  2  0
 11 17  1  0
 12 18  2  0
 12 32  1  0
 13 14  2  0
 13 22  1  0
 14 15  1  0
 14 29  1  0
 15 19  2  0
 15 30  1  0
 16 26  1  0
 16 27  1  0
 17 24  2  0
 17 33  1  0
 18 23  1  0
 19 23  1  0
 20 26  1  0
 20 43  1  0
 20 44  1  0
 20 45  1  0
 28 46  1  0
 47 48  2  0
 47 49  1  0
 49 50  1  0
 49 51  1  0
 49 52  1  0
M  END
>  <r_exp_dg>  (7) 
-12.26

>  <AmberAM1BCCCache>  (7) 
gASVNwQAAAAAAABdlCiMFm51bXB5Ll9jb3JlLm11bHRpYXJyYXmUjAZzY2FsYXKUk5SMBW51bXB5lIwFZHR5cGWUk5SMAmY4lImIh5RSlChLA4wBPJROTk5K/////0r/////SwB0lGJDCDtNjKOu3va/lIaUUpRoA2gJQwiLBvwbcynwP5SGlFKUaANoCUMIiwb8G3Mp8D+UhpRSlGgDaAlDCDtNjKOu3va/lIaUUpRoA2gJQwgiPQskiLQCwJSGlFKUaANoCUMIh1KefcMVFsCUhpRSlGgDaAlDCOTijLwSjSBAlIaUUpRoA2gJQwiuDM/Etqj7P5SGlFKUaANoCUMIn9YbKkLDJUCUhpRSlGgDaAlDCHhimRw34ARAlIaUUpRoA2gJQwhnUeLSHtUTwJSGlFKUaANoCUMIJzDzIxo4oz+UhpRSlGgDaAlDCMcgwDiG2/o/lIaUUpRoA2gJQwiSEZc4G2D/v5SGlFKUaANoCUMIBlkN5bhQ8r+UhpRSlGgDaAlDCJ2DvYEXXB1AlIaUUpRoA2gJQwjIfFRE64YYQJSGlFKUaANoCUMI96H08Lfk4r+UhpRSlGgDaAlDCAc5yHQyTOE/lIaUUpRoA2gJQwjBu+b+32DqP5SGlFKUaANoCUMIibiqJOix97+UhpRSlGgDaAlDCPuNBhFtZPm/lIaUUpRoA2gJQwiuZqoqLZ8EwJSGlFKUaANoCUMIqiLUvFLxIcCUhpRSlGgDaAlDCGt4UGwLvhzAlIaUUpRoA2gJQwj95n6IKP4TwJSGlFKUaANoCUMI0cRiFBciI8CUhpRSlGgDaAlDCErY0MdKgSPAlIaUUpRoA2gJQwgpdCQle6j9P5SGlFKUaANoCUMII9XaZm1NAECUhpRSlGgDaAlDCDxHvuUjc/8/lIaUUpRoA2gJQwizXXGFz43+P5SGlFKUaANoCUMIqVKPJhmj2T+UhpRSlGgDaAlDCEpm5sW5o+Y/lIaUUpRoA2gJQwhKZubFuaPmP5SGlFKUaANoCUMIydLlXOFq5z+UhpRSlGgDaAlDCMnS5Vzhauc/lIaUUpRoA2gJQwjJ0uVc4WrnP5SGlFKUaANoCUMIydLlXOFq5z+UhpRSlGgDaAlDCEpm5sW5o+Y/lIaUUpRoA2gJQwhKZubFuaPmP5SGlFKUaANoCUMI3O0ZwMCi8D+UhpRSlGgDaAlDCM4nX69PYOg/lIaUUpRoA2gJQwjOJ1+vT2DoP5SGlFKUaANoCUMIzidfr09g6D+UhpRSlGgDaAlDCDJhQNANxxRAlIaUUpRoA2gJQwjq9ty8KOMeQJSGlFKUaANoCUMIRqe/iL5nHMCUhpRSlGgDaAlDCMcMTHn5CQDAlIaUUpRoA2gJQwhcy4P3iznpP5SGlFKUaANoCUMIXMuD94s56T+UhpRSlGgDaAlDCFzLg/eLOek/lIaUUpRlLg==

>  <experimental dG reference units>  (7) 
kcal/mol

>  <experimental dG reference field>  (7) 
r_exp_dg

>  <kJ/mol experimental dG>  (7) 
-51.29584

>  <kcal/mol experimental dG>  (7) 
-12.26

$$$$
3flw
     RDKit          3D

 49 51  0  0  1  0  0  0  0  0999 V2000
   15.9279   10.6063   31.6532 C   0  0  0  0  0  0  0  0  0  0  0  0
   21.3330   12.5360   31.2560 C   0  0  0  0  0  0  0  0  0  0  0  0
   17.2139   11.1337   31.7473 C   0  0  0  0  0  0  0  0  0  0  0  0
   23.8140    8.4300   31.0230 C   0  0  0  0  0  0  0  0  0  0  0  0
   26.2781    8.4038   31.4167 C   0  0  0  0  0  0  0  0  0  0  0  0
   21.4260    9.7450   30.7760 C   0  0  0  0  0  0  0  0  0  0  0  0
   20.2000   10.4070   30.6460 C   0  0  0  0  0  0  0  0  0  0  0  0
   15.1498   10.8627   30.5281 C   0  0  0  0  0  0  0  0  0  0  0  0
   15.6449   11.6672   29.5064 C   0  0  0  0  0  0  0  0  0  0  0  0
   16.9264   12.2089   29.5996 C   0  0  0  0  0  0  0  0  0  0  0  0
   22.5820   10.4440   31.1400 C   0  0  0  0  0  0  0  0  0  0  0  0
   21.5200    8.3710   30.5390 C   0  0  0  0  0  0  0  0  0  0  0  0
   20.1110   11.7830   30.8770 C   0  0  0  0  0  0  0  0  0  0  0  0
   17.7270   11.9270   30.7078 C   0  0  0  0  0  0  0  0  0  0  0  0
   23.7830   12.5383   31.8042 C   0  0  0  0  0  0  0  0  0  0  0  0
   17.9605   10.8651   32.8429 F   0  0  0  0  0  0  0  0  0  0  0  0
   13.9215   10.3202   30.4148 F   0  0  0  0  0  0  0  0  0  0  0  0
   18.9659   12.5220   30.7786 O   0  0  0  0  0  0  0  0  0  0  0  0
   22.6990    7.7390   30.6640 N   0  0  0  0  0  0  0  0  0  0  0  0
   21.2570   13.7670   31.4640 O   0  0  0  0  0  0  0  0  0  0  0  0
   22.5560   11.8400   31.3820 N   0  0  0  0  0  0  0  0  0  0  0  0
   23.7460    9.7650   31.2550 N   0  0  0  0  0  0  0  0  0  0  0  0
   24.9914    7.7394   31.2389 N   0  0  0  0  0  0  0  0  0  0  0  0
   15.0310   11.8637   28.6415 H   0  0  0  0  0  0  0  0  0  0  0  0
   17.3054   12.8403   28.8086 H   0  0  0  0  0  0  0  0  0  0  0  0
   15.5453    9.9766   32.4420 H   0  0  0  0  0  0  0  0  0  0  0  0
   19.3169    9.8549   30.3579 H   0  0  0  0  0  0  0  0  0  0  0  0
   20.6583    7.7869   30.2467 H   0  0  0  0  0  0  0  0  0  0  0  0
   26.1185    9.3725   31.8990 H   0  0  0  0  0  0  0  0  0  0  0  0
   24.2385   12.0227   32.6504 H   0  0  0  0  0  0  0  0  0  0  0  0
   24.5074   12.5543   30.9904 H   0  0  0  0  0  0  0  0  0  0  0  0
   23.6058   13.5704   32.1102 H   0  0  0  0  0  0  0  0  0  0  0  0
   24.9958    6.7501   31.0117 H   0  0  0  0  0  0  0  0  0  0  0  0
   26.9525    8.6579   30.0477 C   0  0  0  0  0  0  0  0  0  0  0  0
   27.9021    9.1727   30.1892 H   0  0  0  0  0  0  0  0  0  0  0  0
   27.1964    7.6905   29.6119 H   0  0  0  0  0  0  0  0  0  0  0  0
   27.1659    7.5602   32.3584 C   0  0  0  0  0  0  0  0  0  0  0  0
   26.5914    7.3161   33.2543 H   0  0  0  0  0  0  0  0  0  0  0  0
   27.3960    6.6084   31.8781 H   0  0  0  0  0  0  0  0  0  0  0  0
   26.1435    9.4562   29.0108 C   0  0  0  0  0  0  0  0  0  0  0  0
   26.7203    9.5951   28.0981 H   0  0  0  0  0  0  0  0  0  0  0  0
   25.2421    8.9172   28.7219 H   0  0  0  0  0  0  0  0  0  0  0  0
   28.4751    8.2359   32.7968 C   0  0  0  0  0  0  0  0  0  0  0  0
   28.2705    9.1635   33.3347 H   0  0  0  0  0  0  0  0  0  0  0  0
   29.1059    8.4830   31.9420 H   0  0  0  0  0  0  0  0  0  0  0  0
   25.7776   10.7090   29.5429 O   0  0  0  0  0  0  0  0  0  0  0  0
   25.0866   10.5239   30.2106 H   0  0  0  0  0  0  0  0  0  0  0  0
   29.1894    7.3493   33.6351 O   0  0  0  0  0  0  0  0  0  0  0  0
   29.4503    6.5839   33.1012 H   0  0  0  0  0  0  0  0  0  0  0  0
  1  3  2  0
  1  8  1  0
  1 26  1  0
  2 13  1  0
  2 20  2  0
  2 21  1  0
  3 14  1  0
  3 16  1  0
  4 19  1  0
  4 22  2  0
  4 23  1  0
  5 23  1  0
  5 29  1  0
  5 34  1  0
  5 37  1  0
  6  7  1  0
  6 11  2  0
  6 12  1  0
  7 13  2  0
  7 27  1  0
  8  9  2  0
  8 17  1  0
  9 10  1  0
  9 24  1  0
 10 14  2  0
 10 25  1  0
 11 21  1  0
 11 22  1  0
 12 19  2  0
 12 28  1  0
 13 18  1  0
 14 18  1  0
 15 21  1  0
 15 30  1  0
 15 31  1  0
 15 32  1  0
 23 33  1  0
 34 35  1  0
 34 36  1  0
 34 40  1  0
 37 38  1  0
 37 39  1  0
 37 43  1  0
 40 41  1  0
 40 42  1  0
 40 46  1  0
 43 44  1  0
 43 45  1  0
 43 48  1  0
 46 47  1  0
 48 49  1  0
M  END
>  <r_exp_dg>  (8) 
-10.68

>  <AmberAM1BCCCache>  (8) 
gASV/gMAAAAAAABdlCiMFm51bXB5Ll9jb3JlLm11bHRpYXJyYXmUjAZzY2FsYXKUk5SMBW51bXB5lIwFZHR5cGWUk5SMAmY4lImIh5RSlChLA4wBPJROTk5K/////0r/////SwB0lGJDCLDmBsffcQLAlIaUUpRoA2gJQwgmtIu56oggQJSGlFKUaANoCUMIXRFRSse9+z+UhpRSlGgDaAlDCPGKpMR1wCVAlIaUUpRoA2gJQwh3mukfXFQFQJSGlFKUaANoCUMIZB0SuDvME8CUhpRSlGgDaAlDCMNsanqPSaM/lIaUUpRoA2gJQwj1ze7RgVj6P5SGlFKUaANoCUMIj8tOh/bV/r+UhpRSlGgDaAlDCAh+vdUiovO/lIaUUpRoA2gJQwg+kiYvuFodQJSGlFKUaANoCUMIgnCs2dKSGECUhpRSlGgDaAlDCP4srIWy7+K/lIaUUpRoA2gJQwjXFyhs2CjjP5SGlFKUaANoCUMI6DEQgNNJ6j+UhpRSlGgDaAlDCDXt7RAUXve/lIaUUpRoA2gJQwgvuUFOKHH5v5SGlFKUaANoCUMI/Ex7EbZ9BMCUhpRSlGgDaAlDCAQsblI46yHAlIaUUpRoA2gJQwjEcxbB55ocwJSGlFKUaANoCUMI8v5dXrj9E8CUhpRSlGgDaAlDCC4opTHDFyPAlIaUUpRoA2gJQwinXFPccY0jwJSGlFKUaANoCUMIL7JrHMh+/T+UhpRSlGgDaAlDCC9HvBN8uP8/lIaUUpRoA2gJQwjJsgB0YIP/P5SGlFKUaANoCUMIzMxWVdZ5/j+UhpRSlGgDaAlDCEyVVP8mGdo/lIaUUpRoA2gJQwiaWj1k66bwP5SGlFKUaANoCUMIp5tyEj5q6D+UhpRSlGgDaAlDCKebchI+aug/lIaUUpRoA2gJQwinm3ISPmroP5SGlFKUaANoCUMIKOvu3eCzFECUhpRSlGgDaAlDCGyAyJpBn/e/lIaUUpRoA2gJQwigoUPg19/nP5SGlFKUaANoCUMIoKFD4Nff5z+UhpRSlGgDaAlDCGyAyJpBn/e/lIaUUpRoA2gJQwigoUPg19/nP5SGlFKUaANoCUMIoKFD4Nff5z+UhpRSlGgDaAlDCA78NSfHgfg/lIaUUpRoA2gJQwhAflWhJQ/dP5SGlFKUaANoCUMIQH5VoSUP3T+UhpRSlGgDaAlDCA78NSfHgfg/lIaUUpRoA2gJQwhAflWhJQ/dP5SGlFKUaANoCUMIQH5VoSUP3T+UhpRSlGgDaAlDCHbmoKRgHRzAlIaUUpRoA2gJQwgYcv2k/uQSQJSGlFKUaANoCUMIduagpGAdHMCUhpRSlGgDaAlDCBhy/aT+5BJAlIaUUpRlLg==

>  <experimental dG reference units>  (8) 
kcal/mol

>  <experimental dG reference field>  (8) 
r_exp_dg

>  <kJ/mol experimental dG>  (8) 
-44.68512

>  <kcal/mol experimental dG>  (8) 
-10.68

$$$$
2h
     RDKit          3D

 46 49  0  0  1  0  0  0  0  0999 V2000
   26.9877    8.8875   30.3670 C   0  0  0  0  0  0  0  0  0  0  0  0
   28.3344    9.5250   30.7546 C   0  0  0  0  0  0  0  0  0  0  0  0
   28.4599    8.2176   32.7726 C   0  0  0  0  0  0  0  0  0  0  0  0
   27.1121    7.5372   32.4750 C   0  0  0  0  0  0  0  0  0  0  0  0
   15.6634   10.3068   31.6896 C   0  0  0  0  0  0  0  0  0  0  0  0
   29.0939    8.6123   31.5522 O   0  0  0  0  0  0  0  0  0  0  0  0
   21.3330   12.5360   31.2560 C   0  0  0  0  0  0  0  0  0  0  0  0
   16.8939   10.9548   31.6913 C   0  0  0  0  0  0  0  0  0  0  0  0
   23.8140    8.4300   31.0230 C   0  0  0  0  0  0  0  0  0  0  0  0
   26.2274    8.4610   31.6293 C   0  0  0  0  0  0  0  0  0  0  0  0
   21.4260    9.7450   30.7760 C   0  0  0  0  0  0  0  0  0  0  0  0
   20.2000   10.4070   30.6460 C   0  0  0  0  0  0  0  0  0  0  0  0
   14.7866   10.4492   30.6134 C   0  0  0  0  0  0  0  0  0  0  0  0
   15.1560   11.2235   29.5166 C   0  0  0  0  0  0  0  0  0  0  0  0
   16.3771   11.8931   29.5169 C   0  0  0  0  0  0  0  0  0  0  0  0
   22.5820   10.4440   31.1400 C   0  0  0  0  0  0  0  0  0  0  0  0
   21.5200    8.3710   30.5390 C   0  0  0  0  0  0  0  0  0  0  0  0
   20.1110   11.7830   30.8770 C   0  0  0  0  0  0  0  0  0  0  0  0
   17.2458   11.7564   30.6011 C   0  0  0  0  0  0  0  0  0  0  0  0
   23.7891   12.5344   31.7914 C   0  0  0  0  0  0  0  0  0  0  0  0
   17.7215   10.8099   32.7532 F   0  0  0  0  0  0  0  0  0  0  0  0
   18.6444   12.8122   30.6780 S   0  0  0  0  0  0  0  0  0  0  0  0
   22.6990    7.7390   30.6640 N   0  0  0  0  0  0  0  0  0  0  0  0
   21.2570   13.7670   31.4640 O   0  0  0  0  0  0  0  0  0  0  0  0
   22.5560   11.8400   31.3820 N   0  0  0  0  0  0  0  0  0  0  0  0
   23.7460    9.7650   31.2550 N   0  0  0  0  0  0  0  0  0  0  0  0
   25.0060    7.7571   31.2484 N   0  0  0  0  0  0  0  0  0  0  0  0
   14.4941   11.3132   28.6691 H   0  0  0  0  0  0  0  0  0  0  0  0
   16.6346   12.5350   28.6859 H   0  0  0  0  0  0  0  0  0  0  0  0
   15.4085    9.6775   32.5259 H   0  0  0  0  0  0  0  0  0  0  0  0
   19.3136    9.8695   30.3385 H   0  0  0  0  0  0  0  0  0  0  0  0
   20.6596    7.7846   30.2464 H   0  0  0  0  0  0  0  0  0  0  0  0
   27.1662    8.0230   29.7260 H   0  0  0  0  0  0  0  0  0  0  0  0
   26.3979    9.5959   29.7840 H   0  0  0  0  0  0  0  0  0  0  0  0
   28.1800   10.4605   31.2965 H   0  0  0  0  0  0  0  0  0  0  0  0
   28.9059    9.7816   29.8630 H   0  0  0  0  0  0  0  0  0  0  0  0
   29.1171    7.5304   33.3071 H   0  0  0  0  0  0  0  0  0  0  0  0
   28.3226    9.0845   33.4226 H   0  0  0  0  0  0  0  0  0  0  0  0
   26.6111    7.2747   33.4076 H   0  0  0  0  0  0  0  0  0  0  0  0
   27.3083    6.6033   31.9475 H   0  0  0  0  0  0  0  0  0  0  0  0
   25.9778    9.3503   32.2159 H   0  0  0  0  0  0  0  0  0  0  0  0
   23.6436   13.6000   31.9742 H   0  0  0  0  0  0  0  0  0  0  0  0
   24.1785   12.0920   32.7087 H   0  0  0  0  0  0  0  0  0  0  0  0
   24.5518   12.4281   31.0198 H   0  0  0  0  0  0  0  0  0  0  0  0
   25.0581    6.7703   31.0179 H   0  0  0  0  0  0  0  0  0  0  0  0
   13.8334    9.9417   30.6156 H   0  0  0  0  0  0  0  0  0  0  0  0
  1  2  1  0
  1 10  1  0
  1 33  1  0
  1 34  1  0
  2  6  1  0
  2 35  1  0
  2 36  1  0
  3  4  1  0
  3  6  1  0
  3 37  1  0
  3 38  1  0
  4 10  1  0
  4 39  1  0
  4 40  1  0
  5  8  2  0
  5 13  1  0
  5 30  1  0
  7 18  1  0
  7 24  2  0
  7 25  1  0
  8 19  1  0
  8 21  1  0
  9 23  1  0
  9 26  2  0
  9 27  1  0
 10 27  1  0
 10 41  1  0
 11 12  1  0
 11 16  2  0
 11 17  1  0
 12 18  2  0
 12 31  1  0
 13 14  2  0
 13 46  1  0
 14 15  1  0
 14 28  1  0
 15 19  2  0
 15 29  1  0
 16 25  1  0
 16 26  1  0
 17 23  2  0
 17 32  1  0
 18 22  1  0
 19 22  1  0
 20 25  1  0
 20 42  1  0
 20 43  1  0
 20 44  1  0
 27 45  1  0
M  END
>  <r_exp_dg>  (9) 
-9.48

>  <AmberAM1BCCCache>  (9) 
gASVxQMAAAAAAABdlCiMFm51bXB5Ll9jb3JlLm11bHRpYXJyYXmUjAZzY2FsYXKUk5SMBW51bXB5lIwFZHR5cGWUk5SMAmY4lImIh5RSlChLA4wBPJROTk5K/////0r/////SwB0lGJDCPEjS0L7x/i/lIaUUpRoA2gJQwj23UwKDCf4P5SGlFKUaANoCUMI9t1MCgwn+D+UhpRSlGgDaAlDCPEjS0L7x/i/lIaUUpRoA2gJQwj946fAqEkBwJSGlFKUaANoCUMIMEhXsiSAE8CUhpRSlGgDaAlDCKqW56ZwASFAlIaUUpRoA2gJQwjfHL4Uetr/P5SGlFKUaANoCUMIlAN73tTZJUCUhpRSlGgDaAlDCGVkz3KsqgRAlIaUUpRoA2gJQwgLYDW4XJcUwJSGlFKUaANoCUMIV+XwyrMw6D+UhpRSlGgDaAlDCLpXK/pYje6/lIaUUpRoA2gJQwjhN4SYsRz+v5SGlFKUaANoCUMIIm1sCO1847+UhpRSlGgDaAlDCCEX+fOdyh1AlIaUUpRoA2gJQwgClk8gG7sYQJSGlFKUaANoCUMIJ7rF6N8K/7+UhpRSlGgDaAlDCMNw6hV/mO+/lIaUUpRoA2gJQwh6tJxCmCPqP5SGlFKUaANoCUMI9xQpLd5g+b+UhpRSlGgDaAlDCG0CGz20CPa/lIaUUpRoA2gJQwhhIuxqsvwhwJSGlFKUaANoCUMIZG54GVo1HcCUhpRSlGgDaAlDCLWK/vMm6RPAlIaUUpRoA2gJQwg+A8cqijojwJSGlFKUaANoCUMIyYpqSUBwI8CUhpRSlGgDaAlDCI89xthHd/o/lIaUUpRoA2gJQwh0vwW7vn7/P5SGlFKUaANoCUMIThnSOW3p+z+UhpRSlGgDaAlDCA313ZqSW/0/lIaUUpRoA2gJQwgmTy964rfYP5SGlFKUaANoCUMI+dSjTwrN5j+UhpRSlGgDaAlDCPnUo08KzeY/lIaUUpRoA2gJQwiwHPZ+y/DjP5SGlFKUaANoCUMIsBz2fsvw4z+UhpRSlGgDaAlDCLAc9n7L8OM/lIaUUpRoA2gJQwiwHPZ+y/DjP5SGlFKUaANoCUMI+dSjTwrN5j+UhpRSlGgDaAlDCPnUo08KzeY/lIaUUpRoA2gJQwg1azD0DXrwP5SGlFKUaANoCUMIKNuaZmzx5z+UhpRSlGgDaAlDCCjbmmZs8ec/lIaUUpRoA2gJQwgo25pmbPHnP5SGlFKUaANoCUMI+WB6ZVq4FECUhpRSlGgDaAlDCFJNfvxY1vk/lIaUUpRlLg==

>  <experimental dG reference units>  (9) 
kcal/mol

>  <experimental dG reference field>  (9) 
r_exp_dg

>  <kJ/mol experimental dG>  (9) 
-39.664320000000004

>  <kcal/mol experimental dG>  (9) 
-9.48

$$$$
2i
     RDKit          3D

 48 51  0  0  1  0  0  0  0  0999 V2000
   26.9892    8.8866   30.3672 C   0  0  0  0  0  0  0  0  0  0  0  0
   28.3352    9.5247   30.7557 C   0  0  0  0  0  0  0  0  0  0  0  0
   28.4581    8.2197   32.7755 C   0  0  0  0  0  0  0  0  0  0  0  0
   27.1109    7.5388   32.4768 C   0  0  0  0  0  0  0  0  0  0  0  0
   15.8427   10.4679   31.7777 C   0  0  0  0  0  0  0  0  0  0  0  0
   29.0938    8.6132   31.5556 O   0  0  0  0  0  0  0  0  0  0  0  0
   21.3330   12.5360   31.2560 C   0  0  0  0  0  0  0  0  0  0  0  0
   17.0938   11.0763   31.7921 C   0  0  0  0  0  0  0  0  0  0  0  0
   23.8140    8.4300   31.0230 C   0  0  0  0  0  0  0  0  0  0  0  0
   26.2274    8.4617   31.6290 C   0  0  0  0  0  0  0  0  0  0  0  0
   21.4260    9.7450   30.7760 C   0  0  0  0  0  0  0  0  0  0  0  0
   20.2000   10.4070   30.6460 C   0  0  0  0  0  0  0  0  0  0  0  0
   14.9856   10.6389   30.6906 C   0  0  0  0  0  0  0  0  0  0  0  0
   15.3896   11.4176   29.6076 C   0  0  0  0  0  0  0  0  0  0  0  0
   16.6387   12.0375   29.6193 C   0  0  0  0  0  0  0  0  0  0  0  0
   22.5820   10.4440   31.1400 C   0  0  0  0  0  0  0  0  0  0  0  0
   21.5200    8.3710   30.5390 C   0  0  0  0  0  0  0  0  0  0  0  0
   20.1110   11.7830   30.8770 C   0  0  0  0  0  0  0  0  0  0  0  0
   17.4982   11.8701   30.7118 C   0  0  0  0  0  0  0  0  0  0  0  0
   23.7887   12.5348   31.7914 C   0  0  0  0  0  0  0  0  0  0  0  0
   17.9118   10.8923   32.8543 F   0  0  0  0  0  0  0  0  0  0  0  0
   18.8260   12.6146   30.7501 C   0  0  0  0  0  0  0  0  0  0  0  0
   22.6990    7.7390   30.6640 N   0  0  0  0  0  0  0  0  0  0  0  0
   21.2570   13.7670   31.4640 O   0  0  0  0  0  0  0  0  0  0  0  0
   22.5560   11.8400   31.3820 N   0  0  0  0  0  0  0  0  0  0  0  0
   23.7460    9.7650   31.2550 N   0  0  0  0  0  0  0  0  0  0  0  0
   25.0064    7.7576   31.2476 N   0  0  0  0  0  0  0  0  0  0  0  0
   14.7369   11.5408   28.7558 H   0  0  0  0  0  0  0  0  0  0  0  0
   16.9296   12.6512   28.7777 H   0  0  0  0  0  0  0  0  0  0  0  0
   15.5568    9.8442   32.6096 H   0  0  0  0  0  0  0  0  0  0  0  0
   19.3115    9.8605   30.3598 H   0  0  0  0  0  0  0  0  0  0  0  0
   20.6580    7.7868   30.2477 H   0  0  0  0  0  0  0  0  0  0  0  0
   27.1684    8.0213   29.7277 H   0  0  0  0  0  0  0  0  0  0  0  0
   26.4000    9.5942   29.7825 H   0  0  0  0  0  0  0  0  0  0  0  0
   28.1800   10.4607   31.2964 H   0  0  0  0  0  0  0  0  0  0  0  0
   28.9079    9.7802   29.8646 H   0  0  0  0  0  0  0  0  0  0  0  0
   29.1146    7.5332   33.3117 H   0  0  0  0  0  0  0  0  0  0  0  0
   28.3198    9.0874   33.4243 H   0  0  0  0  0  0  0  0  0  0  0  0
   26.6086    7.2771   33.4088 H   0  0  0  0  0  0  0  0  0  0  0  0
   27.3077    6.6046   31.9502 H   0  0  0  0  0  0  0  0  0  0  0  0
   25.9774    9.3518   32.2143 H   0  0  0  0  0  0  0  0  0  0  0  0
   23.6420   13.5998   31.9763 H   0  0  0  0  0  0  0  0  0  0  0  0
   24.1793   12.0913   32.7076 H   0  0  0  0  0  0  0  0  0  0  0  0
   24.5507   12.4307   31.0188 H   0  0  0  0  0  0  0  0  0  0  0  0
   25.0588    6.7709   31.0165 H   0  0  0  0  0  0  0  0  0  0  0  0
   14.0200   10.1541   30.6807 H   0  0  0  0  0  0  0  0  0  0  0  0
   18.9173   13.2681   29.8797 H   0  0  0  0  0  0  0  0  0  0  0  0
   18.7566   13.2742   31.6165 H   0  0  0  0  0  0  0  0  0  0  0  0
  1  2  1  0
  1 10  1  0
  1 33  1  0
  1 34  1  0
  2  6  1  0
  2 35  1  0
  2 36  1  0
  3  4  1  0
  3  6  1  0
  3 37  1  0
  3 38  1  0
  4 10  1  0
  4 39  1  0
  4 40  1  0
  5  8  2  0
  5 13  1  0
  5 30  1  0
  7 18  1  0
  7 24  2  0
  7 25  1  0
  8 19  1  0
  8 21  1  0
  9 23  1  0
  9 26  2  0
  9 27  1  0
 10 27  1  0
 10 41  1  0
 11 12  1  0
 11 16  2  0
 11 17  1  0
 12 18  2  0
 12 31  1  0
 13 14  2  0
 13 46  1  0
 14 15  1  0
 14 28  1  0
 15 19  2  0
 15 29  1  0
 16 25  1  0
 16 26  1  0
 17 23  2  0
 17 32  1  0
 18 22  1  0
 19 22  1  0
 20 25  1  0
 20 42  1  0
 20 43  1  0
 20 44  1  0
 22 47  1  0
 22 48  1  0
 27 45  1  0
M  END
>  <r_exp_dg>  (10) 
-10.05

>  <AmberAM1BCCCache>  (10) 
gASV6wMAAAAAAABdlCiMFm51bXB5Ll9jb3JlLm11bHRpYXJyYXmUjAZzY2FsYXKUk5SMBW51bXB5lIwFZHR5cGWUk5SMAmY4lImIh5RSlChLA4wBPJROTk5K/////0r/////SwB0lGJDCD7xBReC6fi/lIaUUpRoA2gJQwjuCw7ezDX4P5SGlFKUaANoCUMI7gsO3sw1+D+UhpRSlGgDaAlDCD7xBReC6fi/lIaUUpRoA2gJQwhk6lJ9zk//v5SGlFKUaANoCUMIJ/nDO6qgE8CUhpRSlGgDaAlDCILDpUTduiBAlIaUUpRoA2gJQwggNPDFa5v2P5SGlFKUaANoCUMIbDA5fEGTJUCUhpRSlGgDaAlDCK8BYFGtcQRAlIaUUpRoA2gJQwjzLuZrHIYTwJSGlFKUaANoCUMIKvBX0O7Dpj+UhpRSlGgDaAlDCGABwKhKL/S/lIaUUpRoA2gJQwgkVy9aXvn6v5SGlFKUaANoCUMIqjDoE35M8r+UhpRSlGgDaAlDCJFzgmJNIR1AlIaUUpRoA2gJQwju7L4oHkoYQJSGlFKUaANoCUMITmECG7Z9AsCUhpRSlGgDaAlDCNe5bjDl/vS/lIaUUpRoA2gJQwgeCm91eYHqP5SGlFKUaANoCUMIpqHXVTgW/L+UhpRSlGgDaAlDCFNralT3wck/lIaUUpRoA2gJQwg2/p9twuohwJSGlFKUaANoCUMIxRAOlbzqHcCUhpRSlGgDaAlDCKI94qGO9RPAlIaUUpRoA2gJQwhAYZdVeRIjwJSGlFKUaANoCUMIOGbTRFZiI8CUhpRSlGgDaAlDCCR455VJBfo/lIaUUpRoA2gJQwhiCwu5uVv+P5SGlFKUaANoCUMIT1LH2YaH+z+UhpRSlGgDaAlDCGU/t3ulSPw/lIaUUpRoA2gJQwjyGUQnxzHYP5SGlFKUaANoCUMIFyVcHD9j5z+UhpRSlGgDaAlDCBclXBw/Y+c/lIaUUpRoA2gJQwjojUqwCjXjP5SGlFKUaANoCUMI6I1KsAo14z+UhpRSlGgDaAlDCOiNSrAKNeM/lIaUUpRoA2gJQwjojUqwCjXjP5SGlFKUaANoCUMIFyVcHD9j5z+UhpRSlGgDaAlDCBclXBw/Y+c/lIaUUpRoA2gJQwibl8Wq5pjwP5SGlFKUaANoCUMIVYzDf1au5z+UhpRSlGgDaAlDCFWMw39Wruc/lIaUUpRoA2gJQwhVjMN/Vq7nP5SGlFKUaANoCUMIKrNlFqV3FECUhpRSlGgDaAlDCJmB70S6pPk/lIaUUpRoA2gJQwilvi+0T3nrP5SGlFKUaANoCUMIpb4vtE956z+UhpRSlGUu

>  <experimental dG reference units>  (10) 
kcal/mol

>  <experimental dG reference field>  (10) 
r_exp_dg

>  <kJ/mol experimental dG>  (10) 
-42.049200000000006

>  <kcal/mol experimental dG>  (10) 
-10.05

$$$$
3fmk
     RDKit          3D

 46 49  0  0  1  0  0  0  0  0999 V2000
   15.9286   10.6056   31.6552 C   0  0  0  0  0  0  0  0  0  0  0  0
   21.3330   12.5360   31.2560 C   0  0  0  0  0  0  0  0  0  0  0  0
   17.2145   11.1333   31.7487 C   0  0  0  0  0  0  0  0  0  0  0  0
   23.8140    8.4300   31.0230 C   0  0  0  0  0  0  0  0  0  0  0  0
   26.1589    8.3483   31.8687 C   0  0  1  0  0  0  0  0  0  0  0  0
   21.4260    9.7450   30.7760 C   0  0  0  0  0  0  0  0  0  0  0  0
   20.2000   10.4070   30.6460 C   0  0  0  0  0  0  0  0  0  0  0  0
   15.1498   10.8619   30.5306 C   0  0  0  0  0  0  0  0  0  0  0  0
   15.6441   11.6667   29.5087 C   0  0  0  0  0  0  0  0  0  0  0  0
   16.9256   12.2087   29.6013 C   0  0  0  0  0  0  0  0  0  0  0  0
   22.5820   10.4440   31.1400 C   0  0  0  0  0  0  0  0  0  0  0  0
   21.5200    8.3710   30.5390 C   0  0  0  0  0  0  0  0  0  0  0  0
   20.1110   11.7830   30.8770 C   0  0  0  0  0  0  0  0  0  0  0  0
   17.7268   11.9269   30.7090 C   0  0  0  0  0  0  0  0  0  0  0  0
   23.7889   12.5343   31.7923 C   0  0  0  0  0  0  0  0  0  0  0  0
   17.9617   10.8647   32.8438 F   0  0  0  0  0  0  0  0  0  0  0  0
   13.9216   10.3190   30.4178 F   0  0  0  0  0  0  0  0  0  0  0  0
   18.9657   12.5219   30.7790 O   0  0  0  0  0  0  0  0  0  0  0  0
   22.6990    7.7390   30.6640 N   0  0  0  0  0  0  0  0  0  0  0  0
   21.2570   13.7670   31.4640 O   0  0  0  0  0  0  0  0  0  0  0  0
   22.5560   11.8400   31.3820 N   0  0  0  0  0  0  0  0  0  0  0  0
   23.7460    9.7650   31.2550 N   0  0  0  0  0  0  0  0  0  0  0  0
   24.9796    7.7314   31.2796 N   0  0  0  0  0  0  0  0  0  0  0  0
   15.0298   11.8632   28.6442 H   0  0  0  0  0  0  0  0  0  0  0  0
   17.3039   12.8402   28.8101 H   0  0  0  0  0  0  0  0  0  0  0  0
   15.5466    9.9757   32.4441 H   0  0  0  0  0  0  0  0  0  0  0  0
   19.3168    9.8551   30.3579 H   0  0  0  0  0  0  0  0  0  0  0  0
   20.6584    7.7868   30.2466 H   0  0  0  0  0  0  0  0  0  0  0  0
   25.8499    9.2387   32.4263 H   0  0  0  0  0  0  0  0  0  0  0  0
   24.1807   12.0895   32.7075 H   0  0  0  0  0  0  0  0  0  0  0  0
   24.5513   12.4319   31.0198 H   0  0  0  0  0  0  0  0  0  0  0  0
   23.6432   13.5992   31.9795 H   0  0  0  0  0  0  0  0  0  0  0  0
   25.0067    6.7399   31.0602 H   0  0  0  0  0  0  0  0  0  0  0  0
   26.7985    7.3778   32.8736 C   0  0  0  0  0  0  0  0  0  0  0  0
   27.1970    6.4908   32.3793 H   0  0  0  0  0  0  0  0  0  0  0  0
   27.6189    7.8461   33.4177 H   0  0  0  0  0  0  0  0  0  0  0  0
   26.0726    7.0441   33.6164 H   0  0  0  0  0  0  0  0  0  0  0  0
   27.1344    8.8002   30.7648 C   0  0  0  0  0  0  0  0  0  0  0  0
   27.4936    7.9428   30.1964 H   0  0  0  0  0  0  0  0  0  0  0  0
   26.6478    9.4757   30.0623 H   0  0  0  0  0  0  0  0  0  0  0  0
   28.2803    9.5083   31.3107 N   0  0  0  0  0  0  0  0  0  0  0  0
   29.5331    9.0728   31.1463 N   0  0  0  0  0  0  0  0  0  0  0  0
   30.2092    9.9843   31.8099 C   0  0  0  0  0  0  0  0  0  0  0  0
   29.4763   10.9128   32.4015 N   0  0  0  0  0  0  0  0  0  0  0  0
   28.1718   10.6087   32.0638 N   0  0  0  0  0  0  0  0  0  0  0  0
   31.2919    9.9719   31.8698 H   0  0  0  0  0  0  0  0  0  0  0  0
  1  3  2  0
  1  8  1  0
  1 26  1  0
  2 13  1  0
  2 20  2  0
  2 21  1  0
  3 14  1  0
  3 16  1  0
  4 19  1  0
  4 22  2  0
  4 23  1  0
  5 23  1  0
  5 29  1  1
  5 34  1  0
  5 38  1  0
  6  7  1  0
  6 11  2  0
  6 12  1  0
  7 13  2  0
  7 27  1  0
  8  9  2  0
  8 17  1  0
  9 10  1  0
  9 24  1  0
 10 14  2  0
 10 25  1  0
 11 21  1  0
 11 22  1  0
 12 19  2  0
 12 28  1  0
 13 18  1  0
 14 18  1  0
 15 21  1  0
 15 30  1  0
 15 31  1  0
 15 32  1  0
 23 33  1  0
 34 35  1  0
 34 36  1  0
 34 37  1  0
 38 39  1  0
 38 40  1  0
 38 41  1  0
 41 42  1  0
 41 45  1  0
 42 43  2  0
 43 44  1  0
 43 46  1  0
 44 45  2  0
M  END
>  <r_exp_dg>  (11) 
-11.83

>  <AmberAM1BCCCache>  (11) 
gASVxQMAAAAAAABdlCiMFm51bXB5Ll9jb3JlLm11bHRpYXJyYXmUjAZzY2FsYXKUk5SMBW51bXB5lIwFZHR5cGWUk5SMAmY4lImIh5RSlChLA4wBPJROTk5K/////0r/////SwB0lGJDCMgnVnUNKwLAlIaUUpRoA2gJQwg1DU0EpnwgQJSGlFKUaANoCUMIXsUfJdgs/D+UhpRSlGgDaAlDCKJyT7F7oSVAlIaUUpRoA2gJQwjTRoyBBEMCQJSGlFKUaANoCUMIJikz6Lx3E8CUhpRSlGgDaAlDCPsOhoEvDo2/lIaUUpRoA2gJQwgb/k8/fOn5P5SGlFKUaANoCUMIdehY+A09/r+UhpRSlGgDaAlDCEXIwSbOT/W/lIaUUpRoA2gJQwiZ92PFx0EdQJSGlFKUaANoCUMIaO44XL+EGECUhpRSlGgDaAlDCHJHUdca8+C/lIaUUpRoA2gJQwigZgVPeAjlP5SGlFKUaANoCUMIDE1DDj8j6j+UhpRSlGgDaAlDCPMGoEdb5fa/lIaUUpRoA2gJQwh6yevV/lj5v5SGlFKUaANoCUMIh4onfhlbBMCUhpRSlGgDaAlDCD5/tPRWuyHAlIaUUpRoA2gJQwjIsbbfEFAcwJSGlFKUaANoCUMID7Zd/Un5E8CUhpRSlGgDaAlDCB1gj7Qu+SLAlIaUUpRoA2gJQwjXoaDnPGojwJSGlFKUaANoCUMILz5ZxpV7/T+UhpRSlGgDaAlDCC4kA+Ufhf4/lIaUUpRoA2gJQwiXCIHmwZ7/P5SGlFKUaANoCUMIPSAVnFut/j+UhpRSlGgDaAlDCJ80PJmqu9s/lIaUUpRoA2gJQwiVR89CgfD0P5SGlFKUaANoCUMIlKzPlimy6D+UhpRSlGgDaAlDCJSsz5Ypsug/lIaUUpRoA2gJQwiUrM+WKbLoP5SGlFKUaANoCUMIs72c8bxVFECUhpRSlGgDaAlDCHcaRf3UKPi/lIaUUpRoA2gJQwhJSbGPotXjP5SGlFKUaANoCUMISUmxj6LV4z+UhpRSlGgDaAlDCElJsY+i1eM/lIaUUpRoA2gJQwj9x6vx9zvlP5SGlFKUaANoCUMIOLyHsZlJ8D+UhpRSlGgDaAlDCDi8h7GZSfA/lIaUUpRoA2gJQwjWexijgjACQJSGlFKUaANoCUMINOp3gcf/FsCUhpRSlGgDaAlDCE10+XzEPRZAlIaUUpRoA2gJQwjRxDXCyFcRwJSGlFKUaANoCUMIQQ8QeiCm+r+UhpRSlGgDaAlDCG0a1hlJnfA/lIaUUpRlLg==

>  <experimental dG reference units>  (11) 
kcal/mol

>  <experimental dG reference field>  (11) 
r_exp_dg

>  <kJ/mol experimental dG>  (11) 
-49.49672

>  <kcal/mol experimental dG>  (11) 
-11.83

$$$$
2f
     RDKit          3D

 46 49  0  0  1  0  0  0  0  0999 V2000
   26.9874    8.8882   30.3675 C   0  0  0  0  0  0  0  0  0  0  0  0
   28.3344    9.5249   30.7551 C   0  0  0  0  0  0  0  0  0  0  0  0
   28.4598    8.2164   32.7725 C   0  0  0  0  0  0  0  0  0  0  0  0
   27.1121    7.5363   32.4744 C   0  0  0  0  0  0  0  0  0  0  0  0
   15.6212   11.3242   29.8260 C   0  0  0  0  0  0  0  0  0  0  0  0
   29.0938    8.6116   31.5523 O   0  0  0  0  0  0  0  0  0  0  0  0
   21.3330   12.5360   31.2560 C   0  0  0  0  0  0  0  0  0  0  0  0
   16.8598   11.9578   29.7639 C   0  0  0  0  0  0  0  0  0  0  0  0
   23.8140    8.4300   31.0230 C   0  0  0  0  0  0  0  0  0  0  0  0
   26.2274    8.4608   31.6296 C   0  0  0  0  0  0  0  0  0  0  0  0
   21.4260    9.7450   30.7760 C   0  0  0  0  0  0  0  0  0  0  0  0
   20.2000   10.4070   30.6460 C   0  0  0  0  0  0  0  0  0  0  0  0
   15.2403   10.6438   30.9787 C   0  0  0  0  0  0  0  0  0  0  0  0
   16.1110   10.5697   32.0647 C   0  0  0  0  0  0  0  0  0  0  0  0
   17.3587   11.1843   31.9950 C   0  0  0  0  0  0  0  0  0  0  0  0
   22.5820   10.4440   31.1400 C   0  0  0  0  0  0  0  0  0  0  0  0
   21.5200    8.3710   30.5390 C   0  0  0  0  0  0  0  0  0  0  0  0
   20.1110   11.7830   30.8770 C   0  0  0  0  0  0  0  0  0  0  0  0
   17.7371   11.8794   30.8437 C   0  0  0  0  0  0  0  0  0  0  0  0
   23.7892   12.5345   31.7909 C   0  0  0  0  0  0  0  0  0  0  0  0
   18.9568   12.5076   30.7743 O   0  0  0  0  0  0  0  0  0  0  0  0
   22.6990    7.7390   30.6640 N   0  0  0  0  0  0  0  0  0  0  0  0
   21.2570   13.7670   31.4640 O   0  0  0  0  0  0  0  0  0  0  0  0
   22.5560   11.8400   31.3820 N   0  0  0  0  0  0  0  0  0  0  0  0
   23.7460    9.7650   31.2550 N   0  0  0  0  0  0  0  0  0  0  0  0
   25.0061    7.7571   31.2482 N   0  0  0  0  0  0  0  0  0  0  0  0
   15.8314   10.0202   32.9506 H   0  0  0  0  0  0  0  0  0  0  0  0
   18.0390   11.1159   32.8314 H   0  0  0  0  0  0  0  0  0  0  0  0
   14.8001   11.3407   28.7581 F   0  0  0  0  0  0  0  0  0  0  0  0
   19.3156    9.8560   30.3574 H   0  0  0  0  0  0  0  0  0  0  0  0
   20.6596    7.7849   30.2459 H   0  0  0  0  0  0  0  0  0  0  0  0
   27.1654    8.0242   29.7257 H   0  0  0  0  0  0  0  0  0  0  0  0
   26.3976    9.5972   29.7852 H   0  0  0  0  0  0  0  0  0  0  0  0
   28.1805   10.4602   31.2975 H   0  0  0  0  0  0  0  0  0  0  0  0
   28.9059    9.7816   29.8636 H   0  0  0  0  0  0  0  0  0  0  0  0
   29.1169    7.5288   33.3067 H   0  0  0  0  0  0  0  0  0  0  0  0
   28.3227    9.0829   33.4230 H   0  0  0  0  0  0  0  0  0  0  0  0
   26.6111    7.2726   33.4066 H   0  0  0  0  0  0  0  0  0  0  0  0
   27.3085    6.6031   31.9458 H   0  0  0  0  0  0  0  0  0  0  0  0
   25.9778    9.3497   32.2169 H   0  0  0  0  0  0  0  0  0  0  0  0
   24.5509   12.4306   31.0179 H   0  0  0  0  0  0  0  0  0  0  0  0
   24.1811   12.0905   32.7064 H   0  0  0  0  0  0  0  0  0  0  0  0
   23.6435   13.5996   31.9766 H   0  0  0  0  0  0  0  0  0  0  0  0
   25.0589    6.7703   31.0176 H   0  0  0  0  0  0  0  0  0  0  0  0
   17.1456   12.4883   28.8695 H   0  0  0  0  0  0  0  0  0  0  0  0
   14.2794   10.1533   31.0149 H   0  0  0  0  0  0  0  0  0  0  0  0
  1  2  1  0
  1 10  1  0
  1 32  1  0
  1 33  1  0
  2  6  1  0
  2 34  1  0
  2 35  1  0
  3  4  1  0
  3  6  1  0
  3 36  1  0
  3 37  1  0
  4 10  1  0
  4 38  1  0
  4 39  1  0
  5  8  2  0
  5 13  1  0
  5 29  1  0
  7 18  1  0
  7 23  2  0
  7 24  1  0
  8 19  1  0
  8 45  1  0
  9 22  1  0
  9 25  2  0
  9 26  1  0
 10 26  1  0
 10 40  1  0
 11 12  1  0
 11 16  2  0
 11 17  1  0
 12 18  2  0
 12 30  1  0
 13 14  2  0
 13 46  1  0
 14 15  1  0
 14 27  1  0
 15 19  2  0
 15 28  1  0
 16 24  1  0
 16 25  1  0
 17 22  2  0
 17 31  1  0
 18 21  1  0
 19 21  1  0
 20 24  1  0
 20 41  1  0
 20 42  1  0
 20 43  1  0
 26 44  1  0
M  END
>  <r_exp_dg>  (12) 
-8.48

>  <AmberAM1BCCCache>  (12) 
gASVxQMAAAAAAABdlCiMFm51bXB5Ll9jb3JlLm11bHRpYXJyYXmUjAZzY2FsYXKUk5SMBW51bXB5lIwFZHR5cGWUk5SMAmY4lImIh5RSlChLA4wBPJROTk5K/////0r/////SwB0lGJDCO4mCiJWuvi/lIaUUpRoA2gJQwhm2WENyUT4P5SGlFKUaANoCUMIZtlhDclE+D+UhpRSlGgDaAlDCO4mCiJWuvi/lIaUUpRoA2gJQwjSYLtV7BP9P5SGlFKUaANoCUMIugndeK90E8CUhpRSlGgDaAlDCH5DQD9dfCBAlIaUUpRoA2gJQwjrII075f4DwJSGlFKUaANoCUMILiX6pmvHJUCUhpRSlGgDaAlDCIrgLdeiyQRAlIaUUpRoA2gJQwgoMJKMCvcTwJSGlFKUaANoCUMIiJulNxUjmT+UhpRSlGgDaAlDCENMx11URALAlIaUUpRoA2gJQwjCcxFSwJDtv5SGlFKUaANoCUMIEIEJLzQpAMCUhpRSlGgDaAlDCHNfxuN9cR1AlIaUUpRoA2gJQwjI2nnOMIYYQJSGlFKUaANoCUMIRbh5FCyq4r+UhpRSlGgDaAlDCMG1AsaGu/s/lIaUUpRoA2gJQwhbq8ZIEl/qP5SGlFKUaANoCUMICaB2UUMNBcCUhpRSlGgDaAlDCE+FS/bW4CHAlIaUUpRoA2gJQwhMTBbtNggcwJSGlFKUaANoCUMIHke1W/8RFMCUhpRSlGgDaAlDCGVlkKe6JiPAlIaUUpRoA2gJQwj26ryhjnAjwJSGlFKUaANoCUMIuj1fM71k+j+UhpRSlGgDaAlDCPsELxkZqPw/lIaUUpRoA2gJQwhPAFRXn0T6v5SGlFKUaANoCUMInOgWDMfJ/T+UhpRSlGgDaAlDCOk8g4bWLtk/lIaUUpRoA2gJQwgx3bGWfVfmP5SGlFKUaANoCUMIMd2xln1X5j+UhpRSlGgDaAlDCC0ggG6Gq+M/lIaUUpRoA2gJQwgtIIBuhqvjP5SGlFKUaANoCUMILSCAboar4z+UhpRSlGgDaAlDCC0ggG6Gq+M/lIaUUpRoA2gJQwgx3bGWfVfmP5SGlFKUaANoCUMIMd2xln1X5j+UhpRSlGgDaAlDCFBVYbbRSPE/lIaUUpRoA2gJQwj2qZvihWLoP5SGlFKUaANoCUMI9qmb4oVi6D+UhpRSlGgDaAlDCPapm+KFYug/lIaUUpRoA2gJQwjOobbKq6sUQJSGlFKUaANoCUMIJ98OXVYq/j+UhpRSlGgDaAlDCHAON8iJR/w/lIaUUpRlLg==

>  <experimental dG reference units>  (12) 
kcal/mol

>  <experimental dG reference field>  (12) 
r_exp_dg

>  <kJ/mol experimental dG>  (12) 
-35.480320000000006

>  <kcal/mol experimental dG>  (12) 
-8.48

$$$$
2ff
     RDKit          3D

 49 52  0  0  1  0  0  0  0  0999 V2000
   26.5819    9.4880   30.0746 C   0  0  0  0  0  0  0  0  0  0  0  0
   27.6777   10.5032   30.4283 C   0  0  0  0  0  0  0  0  0  0  0  0
   28.6901    8.7982   32.0407 C   0  0  0  0  0  0  0  0  0  0  0  0
   27.4885    7.8472   31.7594 C   0  0  0  0  0  0  0  0  0  0  0  0
   15.9279   10.6058   31.6540 C   0  0  0  0  0  0  0  0  0  0  0  0
   28.9625    9.7958   30.8849 C   0  0  2  0  0  0  0  0  0  0  0  0
   21.3330   12.5360   31.2560 C   0  0  0  0  0  0  0  0  0  0  0  0
   17.2139   11.1332   31.7480 C   0  0  0  0  0  0  0  0  0  0  0  0
   23.8140    8.4300   31.0230 C   0  0  0  0  0  0  0  0  0  0  0  0
   26.2516    8.6600   31.3372 C   0  0  2  0  0  0  0  0  0  0  0  0
   21.4260    9.7450   30.7760 C   0  0  0  0  0  0  0  0  0  0  0  0
   20.2000   10.4070   30.6460 C   0  0  0  0  0  0  0  0  0  0  0  0
   15.1495   10.8625   30.5293 C   0  0  0  0  0  0  0  0  0  0  0  0
   15.6441   11.6677   29.5079 C   0  0  0  0  0  0  0  0  0  0  0  0
   16.9256   12.2095   29.6010 C   0  0  0  0  0  0  0  0  0  0  0  0
   22.5820   10.4440   31.1400 C   0  0  0  0  0  0  0  0  0  0  0  0
   21.5200    8.3710   30.5390 C   0  0  0  0  0  0  0  0  0  0  0  0
   20.1110   11.7830   30.8770 C   0  0  0  0  0  0  0  0  0  0  0  0
   17.7267   11.9270   30.7087 C   0  0  0  0  0  0  0  0  0  0  0  0
   23.7911   12.5344   31.7851 C   0  0  0  0  0  0  0  0  0  0  0  0
   17.9605   10.8643   32.8434 F   0  0  0  0  0  0  0  0  0  0  0  0
   13.9213   10.3197   30.4161 F   0  0  0  0  0  0  0  0  0  0  0  0
   18.9657   12.5219   30.7791 O   0  0  0  0  0  0  0  0  0  0  0  0
   22.6990    7.7390   30.6640 N   0  0  0  0  0  0  0  0  0  0  0  0
   21.2570   13.7670   31.4640 O   0  0  0  0  0  0  0  0  0  0  0  0
   22.5560   11.8400   31.3820 N   0  0  0  0  0  0  0  0  0  0  0  0
   23.7460    9.7650   31.2550 N   0  0  0  0  0  0  0  0  0  0  0  0
   25.0655    7.8217   31.1105 N   0  0  0  0  0  0  0  0  0  0  0  0
   15.0300   11.8646   28.6433 H   0  0  0  0  0  0  0  0  0  0  0  0
   17.3043   12.8412   28.8102 H   0  0  0  0  0  0  0  0  0  0  0  0
   15.5457    9.9758   32.4426 H   0  0  0  0  0  0  0  0  0  0  0  0
   19.3170    9.8548   30.3581 H   0  0  0  0  0  0  0  0  0  0  0  0
   20.6587    7.7869   30.2462 H   0  0  0  0  0  0  0  0  0  0  0  0
   26.9073    8.8378   29.2607 H   0  0  0  0  0  0  0  0  0  0  0  0
   25.7163   10.0314   29.6974 H   0  0  0  0  0  0  0  0  0  0  0  0
   27.3160   11.1613   31.2206 H   0  0  0  0  0  0  0  0  0  0  0  0
   27.8686   11.1543   29.5808 H   0  0  0  0  0  0  0  0  0  0  0  0
   29.5871    8.2119   32.2443 H   0  0  0  0  0  0  0  0  0  0  0  0
   28.4828    9.3601   32.9530 H   0  0  0  0  0  0  0  0  0  0  0  0
   27.2692    7.2502   32.6458 H   0  0  0  0  0  0  0  0  0  0  0  0
   27.7524    7.1446   30.9692 H   0  0  0  0  0  0  0  0  0  0  0  0
   26.0109    9.3427   32.1580 H   0  0  0  0  0  0  0  0  0  0  0  0
   24.1841   12.0936   32.7017 H   0  0  0  0  0  0  0  0  0  0  0  0
   24.5511   12.4247   31.0112 H   0  0  0  0  0  0  0  0  0  0  0  0
   23.6479   13.6006   31.9659 H   0  0  0  0  0  0  0  0  0  0  0  0
   25.1612    6.8393   30.8751 H   0  0  0  0  0  0  0  0  0  0  0  0
   29.3756    9.2434   30.0448 H   0  0  0  0  0  0  0  0  0  0  0  0
   29.9264   10.7735   31.2091 O   0  0  0  0  0  0  0  0  0  0  0  0
   30.0201   11.3484   30.4207 H   0  0  0  0  0  0  0  0  0  0  0  0
  1  2  1  0
  1 10  1  0
  1 34  1  0
  1 35  1  0
  2  6  1  0
  2 36  1  0
  2 37  1  0
  3  4  1  0
  3  6  1  0
  3 38  1  0
  3 39  1  0
  4 10  1  0
  4 40  1  0
  4 41  1  0
  5  8  2  0
  5 13  1  0
  5 31  1  0
  6 47  1  6
  6 48  1  0
  7 18  1  0
  7 25  2  0
  7 26  1  0
  8 19  1  0
  8 21  1  0
  9 24  1  0
  9 27  2  0
  9 28  1  0
 10 28  1  0
 10 42  1  1
 11 12  1  0
 11 16  2  0
 11 17  1  0
 12 18  2  0
 12 32  1  0
 13 14  2  0
 13 22  1  0
 14 15  1  0
 14 29  1  0
 15 19  2  0
 15 30  1  0
 16 26  1  0
 16 27  1  0
 17 24  2  0
 17 33  1  0
 18 23  1  0
 19 23  1  0
 20 26  1  0
 20 43  1  0
 20 44  1  0
 20 45  1  0
 28 46  1  0
 48 49  1  0
M  END
>  <r_exp_dg>  (13) 
-11.44

>  <AmberAM1BCCCache>  (13) 
gASV/gMAAAAAAABdlCiMFm51bXB5Ll9jb3JlLm11bHRpYXJyYXmUjAZzY2FsYXKUk5SMBW51bXB5lIwFZHR5cGWUk5SMAmY4lImIh5RSlChLA4wBPJROTk5K/////0r/////SwB0lGJDCMpv4mUMbvG/lIaUUpRoA2gJQwgQa14OVJ7xv5SGlFKUaANoCUMIEGteDlSe8b+UhpRSlGgDaAlDCMpv4mUMbvG/lIaUUpRoA2gJQwgd+AzIUm0DwJSGlFKUaANoCUMIjkk7dsA6+j+UhpRSlGgDaAlDCH/NetjEoiBAlIaUUpRoA2gJQwg09h8jDoP7P5SGlFKUaANoCUMIhbNtkJHBJUCUhpRSlGgDaAlDCFkjBCyrUQRAlIaUUpRoA2gJQwhkGRAnZcYTwJSGlFKUaANoCUMIh/ne8kvYrD+UhpRSlGgDaAlDCI/ei210dPw/lIaUUpRoA2gJQwhoQYsU/IAAwJSGlFKUaANoCUMI4K1IAoSs7L+UhpRSlGgDaAlDCLN92dOxVR1AlIaUUpRoA2gJQwhH9n+LjoYYQJSGlFKUaANoCUMIjsyQCC1I47+UhpRSlGgDaAlDCPMgtYcVctc/lIaUUpRoA2gJQwgohJ/2L4LqP5SGlFKUaANoCUMIvbmHPNOw+L+UhpRSlGgDaAlDCI6r+zWqQfm/lIaUUpRoA2gJQwgNaWrXhwwFwJSGlFKUaANoCUMIWnheJpzYIcCUhpRSlGgDaAlDCBESNveqQR3AlIaUUpRoA2gJQwhhLrzRd/UTwJSGlFKUaANoCUMIQFfCwZEqI8CUhpRSlGgDaAlDCARdlL9iciPAlIaUUpRoA2gJQwiWVi8APsv9P5SGlFKUaANoCUMIGGnfNoqJAUCUhpRSlGgDaAlDCMIwD0R7Tf8/lIaUUpRoA2gJQwg3Ohfz6+z+P5SGlFKUaANoCUMINeiEbXG12T+UhpRSlGgDaAlDCJcFuQXlTeM/lIaUUpRoA2gJQwiXBbkF5U3jP5SGlFKUaANoCUMI2cyI60CR5T+UhpRSlGgDaAlDCNnMiOtAkeU/lIaUUpRoA2gJQwjZzIjrQJHlP5SGlFKUaANoCUMI2cyI60CR5T+UhpRSlGgDaAlDCJcFuQXlTeM/lIaUUpRoA2gJQwiXBbkF5U3jP5SGlFKUaANoCUMISsN5qkhK8T+UhpRSlGgDaAlDCAHYGgIMJeg/lIaUUpRoA2gJQwgB2BoCDCXoP5SGlFKUaANoCUMIAdgaAgwl6D+UhpRSlGgDaAlDCEW/M6zrlxRAlIaUUpRoA2gJQwgXaZtXE6fYP5SGlFKUaANoCUMISOG9/ZsjHMCUhpRSlGgDaAlDCJK3WNG+2xJAlIaUUpRlLg==

>  <experimental dG reference units>  (13) 
kcal/mol

>  <experimental dG reference field>  (13) 
r_exp_dg

>  <kJ/mol experimental dG>  (13) 
-47.864959999999996

>  <kcal/mol experimental dG>  (13) 
-11.44

$$$$
2q
     RDKit          3D

 59 63  0  0  1  0  0  0  0  0999 V2000
   27.2464    8.4742   30.6836 C   0  0  0  0  0  0  0  0  0  0  0  0
   28.6049    8.9008   31.2737 C   0  0  0  0  0  0  0  0  0  0  0  0
   28.1113    7.9015   33.3951 C   0  0  0  0  0  0  0  0  0  0  0  0
   26.7322    7.4238   32.9103 C   0  0  0  0  0  0  0  0  0  0  0  0
   15.9298   10.6050   31.6575 C   0  0  0  0  0  0  0  0  0  0  0  0
   29.0145    7.9824   32.2891 O   0  0  0  0  0  0  0  0  0  0  0  0
   21.3330   12.5360   31.2560 C   0  0  0  0  0  0  0  0  0  0  0  0
   17.2155   11.1331   31.7503 C   0  0  0  0  0  0  0  0  0  0  0  0
   23.8140    8.4300   31.0230 C   0  0  0  0  0  0  0  0  0  0  0  0
   26.1994    8.3371   31.7957 C   0  0  0  0  0  0  0  0  0  0  0  0
   21.4260    9.7450   30.7760 C   0  0  0  0  0  0  0  0  0  0  0  0
   20.2000   10.4070   30.6460 C   0  0  0  0  0  0  0  0  0  0  0  0
   15.1501   10.8611   30.5336 C   0  0  0  0  0  0  0  0  0  0  0  0
   15.6432   11.6666   29.5116 C   0  0  0  0  0  0  0  0  0  0  0  0
   16.9245   12.2091   29.6034 C   0  0  0  0  0  0  0  0  0  0  0  0
   22.5820   10.4440   31.1400 C   0  0  0  0  0  0  0  0  0  0  0  0
   21.5200    8.3710   30.5390 C   0  0  0  0  0  0  0  0  0  0  0  0
   20.1110   11.7830   30.8770 C   0  0  0  0  0  0  0  0  0  0  0  0
   17.7268   11.9270   30.7103 C   0  0  0  0  0  0  0  0  0  0  0  0
   17.9634   10.8646   32.8449 F   0  0  0  0  0  0  0  0  0  0  0  0
   13.9222   10.3175   30.4214 F   0  0  0  0  0  0  0  0  0  0  0  0
   18.9658   12.5220   30.7792 O   0  0  0  0  0  0  0  0  0  0  0  0
   22.6990    7.7390   30.6640 N   0  0  0  0  0  0  0  0  0  0  0  0
   21.2570   13.7670   31.4640 O   0  0  0  0  0  0  0  0  0  0  0  0
   22.5560   11.8400   31.3820 N   0  0  0  0  0  0  0  0  0  0  0  0
   23.7460    9.7650   31.2550 N   0  0  0  0  0  0  0  0  0  0  0  0
   24.9911    7.7344   31.2459 N   0  0  0  0  0  0  0  0  0  0  0  0
   15.0281   11.8631   28.6476 H   0  0  0  0  0  0  0  0  0  0  0  0
   17.3020   12.8410   28.8121 H   0  0  0  0  0  0  0  0  0  0  0  0
   15.5487    9.9747   32.4466 H   0  0  0  0  0  0  0  0  0  0  0  0
   19.3169    9.8548   30.3583 H   0  0  0  0  0  0  0  0  0  0  0  0
   20.6588    7.7865   30.2466 H   0  0  0  0  0  0  0  0  0  0  0  0
   27.3674    7.5236   30.1631 H   0  0  0  0  0  0  0  0  0  0  0  0
   26.9192    9.2020   29.9401 H   0  0  0  0  0  0  0  0  0  0  0  0
   28.5538    9.8975   31.7030 H   0  0  0  0  0  0  0  0  0  0  0  0
   29.3657    8.9553   30.4959 H   0  0  0  0  0  0  0  0  0  0  0  0
   28.5126    7.2040   34.1315 H   0  0  0  0  0  0  0  0  0  0  0  0
   28.0368    8.8703   33.8937 H   0  0  0  0  0  0  0  0  0  0  0  0
   26.0307    7.3869   33.7441 H   0  0  0  0  0  0  0  0  0  0  0  0
   26.8374    6.4002   32.5495 H   0  0  0  0  0  0  0  0  0  0  0  0
   25.9898    9.3270   32.2070 H   0  0  0  0  0  0  0  0  0  0  0  0
   23.5143   13.6616   31.7723 H   0  0  0  0  0  0  0  0  0  0  0  0
   25.0098    6.7417   31.0378 H   0  0  0  0  0  0  0  0  0  0  0  0
   25.8400   13.7448   30.4440 C   0  0  0  0  0  0  0  0  0  0  0  0
   24.7300   12.6725   30.3537 C   0  0  0  0  0  0  0  0  0  0  0  0
   23.8107   12.6248   31.6032 C   0  0  0  0  0  0  0  0  0  0  0  0
   24.5952   12.2542   32.8874 C   0  0  0  0  0  0  0  0  0  0  0  0
   25.7442   13.2248   33.2586 C   0  0  0  0  0  0  0  0  0  0  0  0
   25.4386   14.7433   30.5969 H   0  0  0  0  0  0  0  0  0  0  0  0
   26.4709   13.7632   29.5586 H   0  0  0  0  0  0  0  0  0  0  0  0
   25.1778   11.6912   30.1802 H   0  0  0  0  0  0  0  0  0  0  0  0
   24.1221   12.8739   29.4692 H   0  0  0  0  0  0  0  0  0  0  0  0
   23.8882   12.2083   33.7180 H   0  0  0  0  0  0  0  0  0  0  0  0
   25.0106   11.2530   32.7921 H   0  0  0  0  0  0  0  0  0  0  0  0
   25.3923   14.2276   33.4477 H   0  0  0  0  0  0  0  0  0  0  0  0
   26.3049   12.8971   34.1301 H   0  0  0  0  0  0  0  0  0  0  0  0
   26.9799   13.4014   31.8781 S   0  0  0  0  0  0  0  0  0  0  0  0
   27.6497   12.1166   31.6799 O   0  0  0  0  0  0  0  0  0  0  0  0
   27.8129   14.5820   32.1307 O   0  0  0  0  0  0  0  0  0  0  0  0
  1  2  1  0
  1 10  1  0
  1 33  1  0
  1 34  1  0
  2  6  1  0
  2 35  1  0
  2 36  1  0
  3  4  1  0
  3  6  1  0
  3 37  1  0
  3 38  1  0
  4 10  1  0
  4 39  1  0
  4 40  1  0
  5  8  2  0
  5 13  1  0
  5 30  1  0
  7 18  1  0
  7 24  2  0
  7 25  1  0
  8 19  1  0
  8 20  1  0
  9 23  1  0
  9 26  2  0
  9 27  1  0
 10 27  1  0
 10 41  1  0
 11 12  1  0
 11 16  2  0
 11 17  1  0
 12 18  2  0
 12 31  1  0
 13 14  2  0
 13 21  1  0
 14 15  1  0
 14 28  1  0
 15 19  2  0
 15 29  1  0
 16 25  1  0
 16 26  1  0
 17 23  2  0
 17 32  1  0
 18 22  1  0
 19 22  1  0
 25 46  1  0
 27 43  1  0
 42 46  1  0
 44 45  1  0
 44 49  1  0
 44 50  1  0
 44 57  1  0
 45 46  1  0
 45 51  1  0
 45 52  1  0
 46 47  1  0
 47 48  1  0
 47 53  1  0
 47 54  1  0
 48 55  1  0
 48 56  1  0
 48 57  1  0
 57 58  2  0
 57 59  2  0
M  END
>  <r_exp_dg>  (14) 
-12.26

>  <AmberAM1BCCCache>  (14) 
gASVvAQAAAAAAABdlCiMFm51bXB5Ll9jb3JlLm11bHRpYXJyYXmUjAZzY2FsYXKUk5SMBW51bXB5lIwFZHR5cGWUk5SMAmY4lImIh5RSlChLA4wBPJROTk5K/////0r/////SwB0lGJDCAG6q5BRs/i/lIaUUpRoA2gJQwivSILKqTP4P5SGlFKUaANoCUMIr0iCyqkz+D+UhpRSlGgDaAlDCAG6q5BRs/i/lIaUUpRoA2gJQwiLOJd3jWsDwJSGlFKUaANoCUMIVM8EpGFqE8CUhpRSlGgDaAlDCDU8txZIryBAlIaUUpRoA2gJQwhYdQvEmIb7P5SGlFKUaANoCUMIA0CkZbbkJUCUhpRSlGgDaAlDCOrVzos12ARAlIaUUpRoA2gJQwhP+Vz5hsgTwJSGlFKUaANoCUMIHbguVN3Lrj+UhpRSlGgDaAlDCD5Ub1+O2Pw/lIaUUpRoA2gJQwibA+fkG20AwJSGlFKUaANoCUMIDrl5b99E7L+UhpRSlGgDaAlDCDZV7eIRqx1AlIaUUpRoA2gJQwji1Nkdg5MYQJSGlFKUaANoCUMIXtX/Saz44r+UhpRSlGgDaAlDCIVRD84rbdU/lIaUUpRoA2gJQwiZOpybSK34v5SGlFKUaANoCUMI3zUYRJDd+L+UhpRSlGgDaAlDCNertrKe8gTAlIaUUpRoA2gJQwhZyaliHc8hwJSGlFKUaANoCUMIACrUtUWVHcCUhpRSlGgDaAlDCLaNGJmi/RPAlIaUUpRoA2gJQwi+IbiFdWMjwJSGlFKUaANoCUMIwJygBLd1I8CUhpRSlGgDaAlDCHTN8wdGI/4/lIaUUpRoA2gJQwgrr6r/7EgBQJSGlFKUaANoCUMILKt2jU2B/z+UhpRSlGgDaAlDCOev+uQFUf8/lIaUUpRoA2gJQwg1uo7dIHbbP5SGlFKUaANoCUMIbzZ+ro9r5j+UhpRSlGgDaAlDCG82fq6Pa+Y/lIaUUpRoA2gJQwiW7r29PC7kP5SGlFKUaANoCUMIlu69vTwu5D+UhpRSlGgDaAlDCJbuvb08LuQ/lIaUUpRoA2gJQwiW7r29PC7kP5SGlFKUaANoCUMIbzZ+ro9r5j+UhpRSlGgDaAlDCG82fq6Pa+Y/lIaUUpRoA2gJQwgoR+miix3xP5SGlFKUaANoCUMI3yRsKJN78j+UhpRSlGgDaAlDCOsa2wcNwxRAlIaUUpRoA2gJQwjlb5toYHwOwJSGlFKUaANoCUMI8lBGHkAr5L+UhpRSlGgDaAlDCIMvVe3xDvI/lIaUUpRoA2gJQwjyUEYeQCvkv5SGlFKUaANoCUMI5W+baGB8DsCUhpRSlGgDaAlDCHNOVMh6e/g/lIaUUpRoA2gJQwhzTlTIenv4P5SGlFKUaANoCUMIo2aq6Uia6T+UhpRSlGgDaAlDCKNmqulImuk/lIaUUpRoA2gJQwijZqrpSJrpP5SGlFKUaANoCUMIo2aq6Uia6T+UhpRSlGgDaAlDCHNOVMh6e/g/lIaUUpRoA2gJQwhzTlTIenv4P5SGlFKUaANoCUMIt6qaVpMqL0CUhpRSlGgDaAlDCETeJTk00R7AlIaUUpRoA2gJQwhE3iU5NNEewJSGlFKUZS4=

>  <experimental dG reference units>  (14) 
kcal/mol

>  <experimental dG reference field>  (14) 
r_exp_dg

>  <kJ/mol experimental dG>  (14) 
-51.29584

>  <kcal/mol experimental dG>  (14) 
-12.26

$$$$
2o
     RDKit          3D

 55 58  0  0  1  0  0  0  0  0999 V2000
   26.9738    8.9109   30.3510 C   0  0  0  0  0  0  0  0  0  0  0  0
   28.3172    9.5594   30.7310 C   0  0  0  0  0  0  0  0  0  0  0  0
   28.4722    8.2390   32.7392 C   0  0  0  0  0  0  0  0  0  0  0  0
   27.1288    7.5477   32.4478 C   0  0  0  0  0  0  0  0  0  0  0  0
   15.9287   10.6062   31.6544 C   0  0  0  0  0  0  0  0  0  0  0  0
   29.0922    8.6492   31.5167 O   0  0  0  0  0  0  0  0  0  0  0  0
   21.3330   12.5360   31.2560 C   0  0  0  0  0  0  0  0  0  0  0  0
   17.2146   11.1337   31.7482 C   0  0  0  0  0  0  0  0  0  0  0  0
   23.8140    8.4300   31.0230 C   0  0  0  0  0  0  0  0  0  0  0  0
   26.2289    8.4699   31.6174 C   0  0  0  0  0  0  0  0  0  0  0  0
   21.4260    9.7450   30.7760 C   0  0  0  0  0  0  0  0  0  0  0  0
   20.2000   10.4070   30.6460 C   0  0  0  0  0  0  0  0  0  0  0  0
   15.1501   10.8627   30.5297 C   0  0  0  0  0  0  0  0  0  0  0  0
   15.6447   11.6676   29.5080 C   0  0  0  0  0  0  0  0  0  0  0  0
   16.9261   12.2096   29.6009 C   0  0  0  0  0  0  0  0  0  0  0  0
   22.5820   10.4440   31.1400 C   0  0  0  0  0  0  0  0  0  0  0  0
   21.5200    8.3710   30.5390 C   0  0  0  0  0  0  0  0  0  0  0  0
   20.1110   11.7830   30.8770 C   0  0  0  0  0  0  0  0  0  0  0  0
   17.7271   11.9274   30.7087 C   0  0  0  0  0  0  0  0  0  0  0  0
   23.7685   12.5461   31.8417 C   0  0  0  0  0  0  0  0  0  0  0  0
   17.9617   10.8651   32.8433 F   0  0  0  0  0  0  0  0  0  0  0  0
   13.9219   10.3198   30.4166 F   0  0  0  0  0  0  0  0  0  0  0  0
   18.9661   12.5222   30.7791 O   0  0  0  0  0  0  0  0  0  0  0  0
   22.6990    7.7390   30.6640 N   0  0  0  0  0  0  0  0  0  0  0  0
   21.2570   13.7670   31.4640 O   0  0  0  0  0  0  0  0  0  0  0  0
   22.5560   11.8400   31.3820 N   0  0  0  0  0  0  0  0  0  0  0  0
   23.7460    9.7650   31.2550 N   0  0  0  0  0  0  0  0  0  0  0  0
   25.0087    7.7601   31.2438 N   0  0  0  0  0  0  0  0  0  0  0  0
   15.0305   11.8643   28.6434 H   0  0  0  0  0  0  0  0  0  0  0  0
   17.3047   12.8412   28.8099 H   0  0  0  0  0  0  0  0  0  0  0  0
   15.5465    9.9762   32.4432 H   0  0  0  0  0  0  0  0  0  0  0  0
   19.3169    9.8549   30.3578 H   0  0  0  0  0  0  0  0  0  0  0  0
   20.6587    7.7867   30.2464 H   0  0  0  0  0  0  0  0  0  0  0  0
   27.1554    8.0514   29.7043 H   0  0  0  0  0  0  0  0  0  0  0  0
   26.3722    9.6155   29.7758 H   0  0  0  0  0  0  0  0  0  0  0  0
   28.1582   10.4904   31.2796 H   0  0  0  0  0  0  0  0  0  0  0  0
   28.8787    9.8261   29.8362 H   0  0  0  0  0  0  0  0  0  0  0  0
   29.1406    7.5543   33.2630 H   0  0  0  0  0  0  0  0  0  0  0  0
   28.3320    9.0998   33.3966 H   0  0  0  0  0  0  0  0  0  0  0  0
   26.6381    7.2731   33.3823 H   0  0  0  0  0  0  0  0  0  0  0  0
   27.3287    6.6200   31.9108 H   0  0  0  0  0  0  0  0  0  0  0  0
   25.9784    9.3530   32.2129 H   0  0  0  0  0  0  0  0  0  0  0  0
   23.4973   13.4682   32.3626 H   0  0  0  0  0  0  0  0  0  0  0  0
   24.2460   11.9357   32.6122 H   0  0  0  0  0  0  0  0  0  0  0  0
   25.0637    6.7735   31.0129 H   0  0  0  0  0  0  0  0  0  0  0  0
   24.7853   12.8467   30.7184 C   0  0  0  0  0  0  0  0  0  0  0  0
   25.3743   11.9683   30.4654 H   0  0  0  0  0  0  0  0  0  0  0  0
   24.3199   13.2115   29.8064 H   0  0  0  0  0  0  0  0  0  0  0  0
   25.9828   14.1755   31.2510 S   0  0  0  0  0  0  0  0  0  0  0  0
   27.0913   14.2145   30.2975 O   0  0  0  0  0  0  0  0  0  0  0  0
   26.2714   14.0013   32.6774 O   0  0  0  0  0  0  0  0  0  0  0  0
   25.0264   15.7419   31.0362 C   0  0  0  0  0  0  0  0  0  0  0  0
   24.1174   15.6602   31.6209 H   0  0  0  0  0  0  0  0  0  0  0  0
   25.6502   16.5542   31.3946 H   0  0  0  0  0  0  0  0  0  0  0  0
   24.8044   15.8501   29.9788 H   0  0  0  0  0  0  0  0  0  0  0  0
  1  2  1  0
  1 10  1  0
  1 34  1  0
  1 35  1  0
  2  6  1  0
  2 36  1  0
  2 37  1  0
  3  4  1  0
  3  6  1  0
  3 38  1  0
  3 39  1  0
  4 10  1  0
  4 40  1  0
  4 41  1  0
  5  8  2  0
  5 13  1  0
  5 31  1  0
  7 18  1  0
  7 25  2  0
  7 26  1  0
  8 19  1  0
  8 21  1  0
  9 24  1  0
  9 27  2  0
  9 28  1  0
 10 28  1  0
 10 42  1  0
 11 12  1  0
 11 16  2  0
 11 17  1  0
 12 18  2  0
 12 32  1  0
 13 14  2  0
 13 22  1  0
 14 15  1  0
 14 29  1  0
 15 19  2  0
 15 30  1  0
 16 26  1  0
 16 27  1  0
 17 24  2  0
 17 33  1  0
 18 23  1  0
 19 23  1  0
 20 26  1  0
 20 43  1  0
 20 44  1  0
 20 46  1  0
 28 45  1  0
 46 47  1  0
 46 48  1  0
 46 49  1  0
 49 50  2  0
 49 51  2  0
 49 52  1  0
 52 53  1  0
 52 54  1  0
 52 55  1  0
M  END
>  <r_exp_dg>  (15) 
-10.49

>  <AmberAM1BCCCache>  (15) 
gASVcAQAAAAAAABdlCiMFm51bXB5Ll9jb3JlLm11bHRpYXJyYXmUjAZzY2FsYXKUk5SMBW51bXB5lIwFZHR5cGWUk5SMAmY4lImIh5RSlChLA4wBPJROTk5K/////0r/////SwB0lGJDCNOIRVDogvi/lIaUUpRoA2gJQwik+7kr+FH4P5SGlFKUaANoCUMIpPu5K/hR+D+UhpRSlGgDaAlDCNOIRVDogvi/lIaUUpRoA2gJQwjO/6cU21QDwJSGlFKUaANoCUMIai/qMD6DE8CUhpRSlGgDaAlDCLBK6zTwsSBAlIaUUpRoA2gJQwg9Zvl+Brr7P5SGlFKUaANoCUMIwa0rtunuJUCUhpRSlGgDaAlDCNUC9BObZwVAlIaUUpRoA2gJQwinuJW47ugTwJSGlFKUaANoCUMIwXxe10+pwD+UhpRSlGgDaAlDCEbJ8Ga94fw/lIaUUpRoA2gJQwi7RmQ1qIAAwJSGlFKUaANoCUMI/sHLb0a37L+UhpRSlGgDaAlDCLGU0w28lh1AlIaUUpRoA2gJQwiD0KSBZ6YYQJSGlFKUaANoCUMIH9DFQ+r747+UhpRSlGgDaAlDCAEo1xfEedU/lIaUUpRoA2gJQwjWVkPJrEH4P5SGlFKUaANoCUMIHcm91eN/+L+UhpRSlGgDaAlDCBI/xRt85vi/lIaUUpRoA2gJQwiD8tZE9eEEwJSGlFKUaANoCUMIknr9vnnPIcCUhpRSlGgDaAlDCP6Cc7+N9h3AlIaUUpRoA2gJQwhX8aBnSfITwJSGlFKUaANoCUMIJYbYvGFDI8CUhpRSlGgDaAlDCIAMm8UphSPAlIaUUpRoA2gJQwhlSNp8G/D9P5SGlFKUaANoCUMI7iyWP1MsAUCUhpRSlGgDaAlDCKYcVVOyrv8/lIaUUpRoA2gJQwi1pk0NGkj/P5SGlFKUaANoCUMIDJMYU5Vq2z+UhpRSlGgDaAlDCLmer5wIkOY/lIaUUpRoA2gJQwi5nq+cCJDmP5SGlFKUaANoCUMIfimHhJuU4z+UhpRSlGgDaAlDCH4ph4SblOM/lIaUUpRoA2gJQwh+KYeEm5TjP5SGlFKUaANoCUMIfimHhJuU4z+UhpRSlGgDaAlDCLmer5wIkOY/lIaUUpRoA2gJQwi5nq+cCJDmP5SGlFKUaANoCUMI9T08y58U8T+UhpRSlGgDaAlDCMhJBqbsm/A/lIaUUpRoA2gJQwjISQam7JvwP5SGlFKUaANoCUMIJjO/7KT4FECUhpRSlGgDaAlDCG3hw17jPRDAlIaUUpRoA2gJQwhqG+IKP5D3P5SGlFKUaANoCUMIahviCj+Q9z+UhpRSlGgDaAlDCAJdLjO0qS9AlIaUUpRoA2gJQwgV37eTheIewJSGlFKUaANoCUMIFd+3k4XiHsCUhpRSlGgDaAlDCGH5xoxqWRLAlIaUUpRoA2gJQwgMbVYlYFP4P5SGlFKUaANoCUMIDG1WJWBT+D+UhpRSlGgDaAlDCAxtViVgU/g/lIaUUpRlLg==

>  <experimental dG reference units>  (15) 
kcal/mol

>  <experimental dG reference field>  (15) 
r_exp_dg

>  <kJ/mol experimental dG>  (15) 
-43.89016

>  <kcal/mol experimental dG>  (15) 
-10.49

$$$$
2k
     RDKit          3D

 43 46  0  0  1  0  0  0  0  0999 V2000
   26.9964    8.8755   30.3751 C   0  0  0  0  0  0  0  0  0  0  0  0
   28.3432    9.5096   30.7680 C   0  0  0  0  0  0  0  0  0  0  0  0
   28.4517    8.2100   32.7922 C   0  0  0  0  0  0  0  0  0  0  0  0
   27.1033    7.5335   32.4892 C   0  0  0  0  0  0  0  0  0  0  0  0
   15.9278   10.6052   31.6553 C   0  0  0  0  0  0  0  0  0  0  0  0
   29.0945    8.5975   31.5741 O   0  0  0  0  0  0  0  0  0  0  0  0
   21.3330   12.5360   31.2560 C   0  0  0  0  0  0  0  0  0  0  0  0
   17.2137   11.1328   31.7492 C   0  0  0  0  0  0  0  0  0  0  0  0
   23.8140    8.4300   31.0230 C   0  0  0  0  0  0  0  0  0  0  0  0
   26.2272    8.4572   31.6346 C   0  0  0  0  0  0  0  0  0  0  0  0
   21.4260    9.7450   30.7760 C   0  0  0  0  0  0  0  0  0  0  0  0
   20.2000   10.4070   30.6460 C   0  0  0  0  0  0  0  0  0  0  0  0
   15.1491   10.8619   30.5308 C   0  0  0  0  0  0  0  0  0  0  0  0
   15.6436   11.6670   29.5092 C   0  0  0  0  0  0  0  0  0  0  0  0
   16.9250   12.2089   29.6021 C   0  0  0  0  0  0  0  0  0  0  0  0
   22.5820   10.4440   31.1400 C   0  0  0  0  0  0  0  0  0  0  0  0
   21.5200    8.3710   30.5390 C   0  0  0  0  0  0  0  0  0  0  0  0
   20.1110   11.7830   30.8770 C   0  0  0  0  0  0  0  0  0  0  0  0
   17.7263   11.9266   30.7097 C   0  0  0  0  0  0  0  0  0  0  0  0
   17.9606   10.8639   32.8445 F   0  0  0  0  0  0  0  0  0  0  0  0
   13.9210   10.3190   30.4177 F   0  0  0  0  0  0  0  0  0  0  0  0
   18.9653   12.5217   30.7798 O   0  0  0  0  0  0  0  0  0  0  0  0
   22.6990    7.7390   30.6640 N   0  0  0  0  0  0  0  0  0  0  0  0
   21.2570   13.7670   31.4640 O   0  0  0  0  0  0  0  0  0  0  0  0
   22.5560   11.8400   31.3820 N   0  0  0  0  0  0  0  0  0  0  0  0
   23.7460    9.7650   31.2550 N   0  0  0  0  0  0  0  0  0  0  0  0
   25.0056    7.7562   31.2493 N   0  0  0  0  0  0  0  0  0  0  0  0
   15.0293   11.8639   28.6447 H   0  0  0  0  0  0  0  0  0  0  0  0
   17.3035   12.8406   28.8112 H   0  0  0  0  0  0  0  0  0  0  0  0
   15.5458    9.9750   32.4440 H   0  0  0  0  0  0  0  0  0  0  0  0
   19.3168    9.8551   30.3584 H   0  0  0  0  0  0  0  0  0  0  0  0
   20.6585    7.7868   30.2465 H   0  0  0  0  0  0  0  0  0  0  0  0
   27.1756    8.0074   29.7392 H   0  0  0  0  0  0  0  0  0  0  0  0
   26.4127    9.5832   29.7853 H   0  0  0  0  0  0  0  0  0  0  0  0
   28.1891   10.4478   31.3054 H   0  0  0  0  0  0  0  0  0  0  0  0
   28.9211    9.7606   29.8790 H   0  0  0  0  0  0  0  0  0  0  0  0
   29.1031    7.5224   33.3333 H   0  0  0  0  0  0  0  0  0  0  0  0
   28.3140    9.0799   33.4380 H   0  0  0  0  0  0  0  0  0  0  0  0
   26.5957    7.2762   33.4196 H   0  0  0  0  0  0  0  0  0  0  0  0
   27.2993    6.5969   31.9664 H   0  0  0  0  0  0  0  0  0  0  0  0
   25.9781    9.3498   32.2164 H   0  0  0  0  0  0  0  0  0  0  0  0
   25.0578    6.7689   31.0196 H   0  0  0  0  0  0  0  0  0  0  0  0
   23.3831   12.3457   31.6420 H   0  0  0  0  0  0  0  0  0  0  0  0
  1  2  1  0
  1 10  1  0
  1 33  1  0
  1 34  1  0
  2  6  1  0
  2 35  1  0
  2 36  1  0
  3  4  1  0
  3  6  1  0
  3 37  1  0
  3 38  1  0
  4 10  1  0
  4 39  1  0
  4 40  1  0
  5  8  2  0
  5 13  1  0
  5 30  1  0
  7 18  1  0
  7 24  2  0
  7 25  1  0
  8 19  1  0
  8 20  1  0
  9 23  1  0
  9 26  2  0
  9 27  1  0
 10 27  1  0
 10 41  1  0
 11 12  1  0
 11 16  2  0
 11 17  1  0
 12 18  2  0
 12 31  1  0
 13 14  2  0
 13 21  1  0
 14 15  1  0
 14 28  1  0
 15 19  2  0
 15 29  1  0
 16 25  1  0
 16 26  1  0
 17 23  2  0
 17 32  1  0
 18 22  1  0
 19 22  1  0
 25 43  1  0
 27 42  1  0
M  END
>  <r_exp_dg>  (16) 
-10.55

>  <AmberAM1BCCCache>  (16) 
gASVjAMAAAAAAABdlCiMFm51bXB5Ll9jb3JlLm11bHRpYXJyYXmUjAZzY2FsYXKUk5SMBW51bXB5lIwFZHR5cGWUk5SMAmY4lImIh5RSlChLA4wBPJROTk5K/////0r/////SwB0lGJDCEf42QUH0Pi/lIaUUpRoA2gJQwigCb5GAB/4P5SGlFKUaANoCUMIoAm+RgAf+D+UhpRSlGgDaAlDCEf42QUH0Pi/lIaUUpRoA2gJQwj2GOLJ1GwDwJSGlFKUaANoCUMIp37BvBJ0E8CUhpRSlGgDaAlDCOAF9mLbnCBAlIaUUpRoA2gJQwjIr/HHUbT7P5SGlFKUaANoCUMI7elx9sXPJUCUhpRSlGgDaAlDCAv5Jnu4sgRAlIaUUpRoA2gJQwiiqBkSONITwJSGlFKUaANoCUMIUcpKztqEtD+UhpRSlGgDaAlDCCOYXRK4pfw/lIaUUpRoA2gJQwifZCJCWmgAwJSGlFKUaANoCUMIQzGdCYyq7L+UhpRSlGgDaAlDCHXuz+jeSR1AlIaUUpRoA2gJQwh9Y9Ne8Z4YQJSGlFKUaANoCUMIZ1ntvqXl4r+UhpRSlGgDaAlDCP8/LDXI89U/lIaUUpRoA2gJQwhv+zFA16/4v5SGlFKUaANoCUMI0u7RVpYw+b+UhpRSlGgDaAlDCOWJP9kJDAXAlIaUUpRoA2gJQwjLPgKGl+ohwJSGlFKUaANoCUMICabDOTYdHcCUhpRSlGgDaAlDCGsyNYY3iRjAlIaUUpRoA2gJQwjfHkc3ezAjwJSGlFKUaANoCUMIOqUJQENyI8CUhpRSlGgDaAlDCCoQAaWB/P0/lIaUUpRoA2gJQwhASAo1CIoBQJSGlFKUaANoCUMIVurg6L5+/z+UhpRSlGgDaAlDCIb4bO/n7f4/lIaUUpRoA2gJQwiCzssAgHraP5SGlFKUaANoCUMI7SnEnBbV5j+UhpRSlGgDaAlDCO0pxJwW1eY/lIaUUpRoA2gJQwhIb1Sg+xDkP5SGlFKUaANoCUMISG9UoPsQ5D+UhpRSlGgDaAlDCEhvVKD7EOQ/lIaUUpRoA2gJQwhIb1Sg+xDkP5SGlFKUaANoCUMI7SnEnBbV5j+UhpRSlGgDaAlDCO0pxJwW1eY/lIaUUpRoA2gJQwiplzc/9mnwP5SGlFKUaANoCUMIHirFU3LIFECUhpRSlGgDaAlDCNjiUCF1ehBAlIaUUpRlLg==

>  <experimental dG reference units>  (16) 
kcal/mol

>  <experimental dG reference field>  (16) 
r_exp_dg

>  <kJ/mol experimental dG>  (16) 
-44.141200000000005

>  <kcal/mol experimental dG>  (16) 
-10.55

$$$$
3fln
     RDKit          3D

 46 49  0  0  1  0  0  0  0  0999 V2000
   26.9885    8.8884   30.3687 C   0  0  0  0  0  0  0  0  0  0  0  0
   28.3349    9.5256   30.7573 C   0  0  0  0  0  0  0  0  0  0  0  0
   28.4586    8.2179   32.7753 C   0  0  0  0  0  0  0  0  0  0  0  0
   27.1112    7.5376   32.4762 C   0  0  0  0  0  0  0  0  0  0  0  0
   15.9284   10.6060   31.6553 C   0  0  0  0  0  0  0  0  0  0  0  0
   29.0938    8.6130   31.5556 O   0  0  0  0  0  0  0  0  0  0  0  0
   21.3330   12.5360   31.2560 C   0  0  0  0  0  0  0  0  0  0  0  0
   17.2143   11.1336   31.7489 C   0  0  0  0  0  0  0  0  0  0  0  0
   23.8140    8.4300   31.0230 C   0  0  0  0  0  0  0  0  0  0  0  0
   26.2273    8.4615   31.6302 C   0  0  0  0  0  0  0  0  0  0  0  0
   21.4260    9.7450   30.7760 C   0  0  0  0  0  0  0  0  0  0  0  0
   20.2000   10.4070   30.6460 C   0  0  0  0  0  0  0  0  0  0  0  0
   15.1497   10.8624   30.5307 C   0  0  0  0  0  0  0  0  0  0  0  0
   15.6440   11.6673   29.5089 C   0  0  0  0  0  0  0  0  0  0  0  0
   16.9255   12.2092   29.6016 C   0  0  0  0  0  0  0  0  0  0  0  0
   22.5820   10.4440   31.1400 C   0  0  0  0  0  0  0  0  0  0  0  0
   21.5200    8.3710   30.5390 C   0  0  0  0  0  0  0  0  0  0  0  0
   20.1110   11.7830   30.8770 C   0  0  0  0  0  0  0  0  0  0  0  0
   17.7268   11.9271   30.7092 C   0  0  0  0  0  0  0  0  0  0  0  0
   23.7892   12.5344   31.7908 C   0  0  0  0  0  0  0  0  0  0  0  0
   17.9613   10.8652   32.8443 F   0  0  0  0  0  0  0  0  0  0  0  0
   13.9215   10.3195   30.4178 F   0  0  0  0  0  0  0  0  0  0  0  0
   18.9657   12.5219   30.7791 O   0  0  0  0  0  0  0  0  0  0  0  0
   22.6990    7.7390   30.6640 N   0  0  0  0  0  0  0  0  0  0  0  0
   21.2570   13.7670   31.4640 O   0  0  0  0  0  0  0  0  0  0  0  0
   22.5560   11.8400   31.3820 N   0  0  0  0  0  0  0  0  0  0  0  0
   23.7460    9.7650   31.2550 N   0  0  0  0  0  0  0  0  0  0  0  0
   25.0065    7.7575   31.2480 N   0  0  0  0  0  0  0  0  0  0  0  0
   15.0297   11.8640   28.6444 H   0  0  0  0  0  0  0  0  0  0  0  0
   17.3040   12.8407   28.8105 H   0  0  0  0  0  0  0  0  0  0  0  0
   15.5463    9.9761   32.4442 H   0  0  0  0  0  0  0  0  0  0  0  0
   19.3169    9.8548   30.3583 H   0  0  0  0  0  0  0  0  0  0  0  0
   20.6585    7.7868   30.2467 H   0  0  0  0  0  0  0  0  0  0  0  0
   27.1672    8.0241   29.7277 H   0  0  0  0  0  0  0  0  0  0  0  0
   26.3989    9.5969   29.7855 H   0  0  0  0  0  0  0  0  0  0  0  0
   28.1801   10.4610   31.2992 H   0  0  0  0  0  0  0  0  0  0  0  0
   28.9071    9.7822   29.8662 H   0  0  0  0  0  0  0  0  0  0  0  0
   29.1154    7.5305   33.3102 H   0  0  0  0  0  0  0  0  0  0  0  0
   28.3208    9.0846   33.4254 H   0  0  0  0  0  0  0  0  0  0  0  0
   26.6093    7.2745   33.4081 H   0  0  0  0  0  0  0  0  0  0  0  0
   27.3079    6.6041   31.9483 H   0  0  0  0  0  0  0  0  0  0  0  0
   25.9772    9.3506   32.2169 H   0  0  0  0  0  0  0  0  0  0  0  0
   24.5509   12.4299   31.0179 H   0  0  0  0  0  0  0  0  0  0  0  0
   24.1809   12.0903   32.7064 H   0  0  0  0  0  0  0  0  0  0  0  0
   23.6441   13.5996   31.9763 H   0  0  0  0  0  0  0  0  0  0  0  0
   25.0599    6.7707   31.0173 H   0  0  0  0  0  0  0  0  0  0  0  0
  1  2  1  0
  1 10  1  0
  1 34  1  0
  1 35  1  0
  2  6  1  0
  2 36  1  0
  2 37  1  0
  3  4  1  0
  3  6  1  0
  3 38  1  0
  3 39  1  0
  4 10  1  0
  4 40  1  0
  4 41  1  0
  5  8  2  0
  5 13  1  0
  5 31  1  0
  7 18  1  0
  7 25  2  0
  7 26  1  0
  8 19  1  0
  8 21  1  0
  9 24  1  0
  9 27  2  0
  9 28  1  0
 10 28  1  0
 10 42  1  0
 11 12  1  0
 11 16  2  0
 11 17  1  0
 12 18  2  0
 12 32  1  0
 13 14  2  0
 13 22  1  0
 14 15  1  0
 14 29  1  0
 15 19  2  0
 15 30  1  0
 16 26  1  0
 16 27  1  0
 17 24  2  0
 17 33  1  0
 18 23  1  0
 19 23  1  0
 20 26  1  0
 20 43  1  0
 20 44  1  0
 20 45  1  0
 28 46  1  0
M  END
>  <r_exp_dg>  (17) 
-10.88

>  <AmberAM1BCCCache>  (17) 
gASVxQMAAAAAAABdlCiMFm51bXB5Ll9jb3JlLm11bHRpYXJyYXmUjAZzY2FsYXKUk5SMBW51bXB5lIwFZHR5cGWUk5SMAmY4lImIh5RSlChLA4wBPJROTk5K/////0r/////SwB0lGJDCMXPwAPjt/i/lIaUUpRoA2gJQwiPMKsrPEf4P5SGlFKUaANoCUMIjzCrKzxH+D+UhpRSlGgDaAlDCMXPwAPjt/i/lIaUUpRoA2gJQwgSlELl2cMCwJSGlFKUaANoCUMIi7P/qRh4E8CUhpRSlGgDaAlDCJ7sN4LGjiBAlIaUUpRoA2gJQwg73PgSOqT7P5SGlFKUaANoCUMIqtCzFbHBJUCUhpRSlGgDaAlDCOeM6HTQwgRAlIaUUpRoA2gJQwjr3aIGONITwJSGlFKUaANoCUMILoT8g9jxqD+UhpRSlGgDaAlDCJLt3FMz8/o/lIaUUpRoA2gJQwjivdmd1o7/v5SGlFKUaANoCUMI6xMnWJfq8b+UhpRSlGgDaAlDCJq3Gtf2WR1AlIaUUpRoA2gJQwiTMAyWzYYYQJSGlFKUaANoCUMIMfoutDRG47+UhpRSlGgDaAlDCJfhI8Cp4uA/lIaUUpRoA2gJQwirWVmF+GPqP5SGlFKUaANoCUMIoOa+qojO97+UhpRSlGgDaAlDCDe/ctHdYPm/lIaUUpRoA2gJQwjq/VlxeqsEwJSGlFKUaANoCUMIzlrNmYLcIcCUhpRSlGgDaAlDCM7i3bjE0BzAlIaUUpRoA2gJQwhM85m4RP0TwJSGlFKUaANoCUMI5ToSS2YiI8CUhpRSlGgDaAlDCBHA8z1AcCPAlIaUUpRoA2gJQwgSRhCf2ov9P5SGlFKUaANoCUMID/oPWVpoAECUhpRSlGgDaAlDCMkW6DOnbv8/lIaUUpRoA2gJQwhHKySvcJ3+P5SGlFKUaANoCUMI7oxIFmK52T+UhpRSlGgDaAlDCEuM2uFXVOY/lIaUUpRoA2gJQwhLjNrhV1TmP5SGlFKUaANoCUMIfs4Sq2yw4z+UhpRSlGgDaAlDCH7OEqtssOM/lIaUUpRoA2gJQwh+zhKrbLDjP5SGlFKUaANoCUMIfs4Sq2yw4z+UhpRSlGgDaAlDCEuM2uFXVOY/lIaUUpRoA2gJQwhLjNrhV1TmP5SGlFKUaANoCUMIeKyq1ERL8T+UhpRSlGgDaAlDCIQ2tQmsXOg/lIaUUpRoA2gJQwiENrUJrFzoP5SGlFKUaANoCUMIhDa1Caxc6D+UhpRSlGgDaAlDCPz3k5lCqBRAlIaUUpRlLg==

>  <experimental dG reference units>  (17) 
kcal/mol

>  <experimental dG reference field>  (17) 
r_exp_dg

>  <kJ/mol experimental dG>  (17) 
-45.52192000000001

>  <kcal/mol experimental dG>  (17) 
-10.88

$$$$
2x
     RDKit          3D

 43 46  0  0  1  0  0  0  0  0999 V2000
   15.9284   10.6059   31.6545 C   0  0  0  0  0  0  0  0  0  0  0  0
   21.3330   12.5360   31.2560 C   0  0  0  0  0  0  0  0  0  0  0  0
   17.2143   11.1336   31.7482 C   0  0  0  0  0  0  0  0  0  0  0  0
   23.8140    8.4300   31.0230 C   0  0  0  0  0  0  0  0  0  0  0  0
   21.4260    9.7450   30.7760 C   0  0  0  0  0  0  0  0  0  0  0  0
   20.2000   10.4070   30.6460 C   0  0  0  0  0  0  0  0  0  0  0  0
   15.1499   10.8619   30.5297 C   0  0  0  0  0  0  0  0  0  0  0  0
   15.6445   11.6663   29.5076 C   0  0  0  0  0  0  0  0  0  0  0  0
   16.9260   12.2083   29.6004 C   0  0  0  0  0  0  0  0  0  0  0  0
   22.5820   10.4440   31.1400 C   0  0  0  0  0  0  0  0  0  0  0  0
   21.5200    8.3710   30.5390 C   0  0  0  0  0  0  0  0  0  0  0  0
   20.1110   11.7830   30.8770 C   0  0  0  0  0  0  0  0  0  0  0  0
   17.7269   11.9268   30.7084 C   0  0  0  0  0  0  0  0  0  0  0  0
   23.7886   12.5348   31.7920 C   0  0  0  0  0  0  0  0  0  0  0  0
   17.9613   10.8653   32.8436 F   0  0  0  0  0  0  0  0  0  0  0  0
   13.9217   10.3191   30.4168 F   0  0  0  0  0  0  0  0  0  0  0  0
   18.9658   12.5219   30.7786 O   0  0  0  0  0  0  0  0  0  0  0  0
   22.6990    7.7390   30.6640 N   0  0  0  0  0  0  0  0  0  0  0  0
   21.2570   13.7670   31.4640 O   0  0  0  0  0  0  0  0  0  0  0  0
   22.5560   11.8400   31.3820 N   0  0  0  0  0  0  0  0  0  0  0  0
   23.7460    9.7650   31.2550 N   0  0  0  0  0  0  0  0  0  0  0  0
   25.0001    7.7514   31.2533 N   0  0  0  0  0  0  0  0  0  0  0  0
   15.0304   11.8625   28.6429 H   0  0  0  0  0  0  0  0  0  0  0  0
   17.3046   12.8396   28.8091 H   0  0  0  0  0  0  0  0  0  0  0  0
   15.5462    9.9763   32.4436 H   0  0  0  0  0  0  0  0  0  0  0  0
   19.3169    9.8550   30.3578 H   0  0  0  0  0  0  0  0  0  0  0  0
   20.6584    7.7869   30.2466 H   0  0  0  0  0  0  0  0  0  0  0  0
   26.0706    9.3836   32.1099 H   0  0  0  0  0  0  0  0  0  0  0  0
   24.1803   12.0901   32.7073 H   0  0  0  0  0  0  0  0  0  0  0  0
   24.5507   12.4324   31.0193 H   0  0  0  0  0  0  0  0  0  0  0  0
   23.6426   13.5996   31.9790 H   0  0  0  0  0  0  0  0  0  0  0  0
   25.0402    6.7600   31.0370 H   0  0  0  0  0  0  0  0  0  0  0  0
   26.2418    8.4692   31.5333 C   0  0  1  0  0  0  0  0  0  0  0  0
   27.2566    7.6143   32.2527 C   0  0  0  0  0  0  0  0  0  0  0  0
   28.5441    8.3841   31.9977 C   0  0  0  0  0  0  0  0  0  0  0  0
   28.3917    8.8649   30.6604 O   0  0  0  0  0  0  0  0  0  0  0  0
   27.0134    8.8453   30.2664 C   0  0  0  0  0  0  0  0  0  0  0  0
   27.3369    6.6197   31.8134 H   0  0  0  0  0  0  0  0  0  0  0  0
   27.0390    7.4990   33.3148 H   0  0  0  0  0  0  0  0  0  0  0  0
   28.6413    9.2305   32.6807 H   0  0  0  0  0  0  0  0  0  0  0  0
   29.4331    7.7603   32.1040 H   0  0  0  0  0  0  0  0  0  0  0  0
   26.8846    8.0948   29.4838 H   0  0  0  0  0  0  0  0  0  0  0  0
   26.6953    9.8071   29.8615 H   0  0  0  0  0  0  0  0  0  0  0  0
  1  3  2  0
  1  7  1  0
  1 25  1  0
  2 12  1  0
  2 19  2  0
  2 20  1  0
  3 13  1  0
  3 15  1  0
  4 18  1  0
  4 21  2  0
  4 22  1  0
  5  6  1  0
  5 10  2  0
  5 11  1  0
  6 12  2  0
  6 26  1  0
  7  8  2  0
  7 16  1  0
  8  9  1  0
  8 23  1  0
  9 13  2  0
  9 24  1  0
 10 20  1  0
 10 21  1  0
 11 18  2  0
 11 27  1  0
 12 17  1  0
 13 17  1  0
 14 20  1  0
 14 29  1  0
 14 30  1  0
 14 31  1  0
 22 32  1  0
 22 33  1  0
 33 28  1  1
 33 34  1  0
 33 37  1  0
 34 35  1  0
 34 38  1  0
 34 39  1  0
 35 36  1  0
 35 40  1  0
 35 41  1  0
 36 37  1  0
 37 42  1  0
 37 43  1  0
M  END
>  <r_exp_dg>  (18) 
-10.23

>  <AmberAM1BCCCache>  (18) 
gASVjAMAAAAAAABdlCiMFm51bXB5Ll9jb3JlLm11bHRpYXJyYXmUjAZzY2FsYXKUk5SMBW51bXB5lIwFZHR5cGWUk5SMAmY4lImIh5RSlChLA4wBPJROTk5K/////0r/////SwB0lGJDCExmX3l0bQPAlIaUUpRoA2gJQwiLshZ3s5wgQJSGlFKUaANoCUMI1hl7wMqC+z+UhpRSlGgDaAlDCIUbvGVTnSVAlIaUUpRoA2gJQwg1VT1XLpYTwJSGlFKUaANoCUMIJ+GJe0zHmj+UhpRSlGgDaAlDCHj9YrN4pPw/lIaUUpRoA2gJQwiXr93FHYEAwJSGlFKUaANoCUMID3CadntM7L+UhpRSlGgDaAlDCPlI8iZ9PR1AlIaUUpRoA2gJQwhfwLfIa3oYQJSGlFKUaANoCUMIHKv6iXbG4b+UhpRSlGgDaAlDCGjCMVvpr9Y/lIaUUpRoA2gJQwjk1F3gGSHqP5SGlFKUaANoCUMIGpYsnxax+L+UhpRSlGgDaAlDCOuHoJjtQfm/lIaUUpRoA2gJQwg817yIqQwFwJSGlFKUaANoCUMITpPCh63eIcCUhpRSlGgDaAlDCIVLofuXKR3AlIaUUpRoA2gJQwimZkbAdukTwJSGlFKUaANoCUMI73aqelsAI8CUhpRSlGgDaAlDCO36qldHWiPAlIaUUpRoA2gJQwh+dQZGQvv9P5SGlFKUaANoCUMI6fqMhWiJAUCUhpRSlGgDaAlDCGVUauE3Tf8/lIaUUpRoA2gJQwjaXXKQqOz+P5SGlFKUaANoCUMI12PhhIJ12j+UhpRSlGgDaAlDCNvQbK9TK/I/lIaUUpRoA2gJQwgvzYIF7WToP5SGlFKUaANoCUMIL82CBe1k6D+UhpRSlGgDaAlDCC/NggXtZOg/lIaUUpRoA2gJQwhGgiVmNNQUQJSGlFKUaANoCUMI2+wZLOgYAkCUhpRSlGgDaAlDCBl81r2guvm/lIaUUpRoA2gJQwhqkiF4p7P2P5SGlFKUaANoCUMIgBm2uRXtE8CUhpRSlGgDaAlDCA2qtS1BwvU/lIaUUpRoA2gJQwhFunKnCybpP5SGlFKUaANoCUMIRbpypwsm6T+UhpRSlGgDaAlDCINF92J4mOM/lIaUUpRoA2gJQwiDRfdieJjjP5SGlFKUaANoCUMI1eQWu4Zz5z+UhpRSlGgDaAlDCNXkFruGc+c/lIaUUpRlLg==

>  <experimental dG reference units>  (18) 
kcal/mol

>  <experimental dG reference field>  (18) 
r_exp_dg

>  <kJ/mol experimental dG>  (18) 
-42.80232

>  <kcal/mol experimental dG>  (18) 
-10.23

$$$$
2e
     RDKit          3D

 46 49  0  0  1  0  0  0  0  0999 V2000
   26.9847    8.8940   30.3654 C   0  0  0  0  0  0  0  0  0  0  0  0
   28.3316    9.5316   30.7518 C   0  0  0  0  0  0  0  0  0  0  0  0
   28.4629    8.2184   32.7658 C   0  0  0  0  0  0  0  0  0  0  0  0
   27.1156    7.5372   32.4686 C   0  0  0  0  0  0  0  0  0  0  0  0
   15.9340   10.6395   31.6600 C   0  0  0  0  0  0  0  0  0  0  0  0
   29.0940    8.6177   31.5454 O   0  0  0  0  0  0  0  0  0  0  0  0
   21.3330   12.5360   31.2560 C   0  0  0  0  0  0  0  0  0  0  0  0
   17.2149   11.1774   31.7581 C   0  0  0  0  0  0  0  0  0  0  0  0
   23.8140    8.4300   31.0230 C   0  0  0  0  0  0  0  0  0  0  0  0
   26.2278    8.4623   31.6280 C   0  0  0  0  0  0  0  0  0  0  0  0
   21.4260    9.7450   30.7760 C   0  0  0  0  0  0  0  0  0  0  0  0
   20.2000   10.4070   30.6460 C   0  0  0  0  0  0  0  0  0  0  0  0
   15.1762   10.8653   30.5140 C   0  0  0  0  0  0  0  0  0  0  0  0
   15.6811   11.6343   29.4710 C   0  0  0  0  0  0  0  0  0  0  0  0
   16.9597   12.1767   29.5671 C   0  0  0  0  0  0  0  0  0  0  0  0
   22.5820   10.4440   31.1400 C   0  0  0  0  0  0  0  0  0  0  0  0
   21.5200    8.3710   30.5390 C   0  0  0  0  0  0  0  0  0  0  0  0
   20.1110   11.7830   30.8770 C   0  0  0  0  0  0  0  0  0  0  0  0
   17.7298   11.9361   30.7034 C   0  0  0  0  0  0  0  0  0  0  0  0
   23.7893   12.5345   31.7903 C   0  0  0  0  0  0  0  0  0  0  0  0
   13.9465   10.3232   30.4009 F   0  0  0  0  0  0  0  0  0  0  0  0
   18.9667   12.5250   30.7937 O   0  0  0  0  0  0  0  0  0  0  0  0
   22.6990    7.7390   30.6640 N   0  0  0  0  0  0  0  0  0  0  0  0
   21.2570   13.7670   31.4640 O   0  0  0  0  0  0  0  0  0  0  0  0
   22.5560   11.8400   31.3820 N   0  0  0  0  0  0  0  0  0  0  0  0
   23.7460    9.7650   31.2550 N   0  0  0  0  0  0  0  0  0  0  0  0
   25.0067    7.7577   31.2474 N   0  0  0  0  0  0  0  0  0  0  0  0
   15.0788   11.8009   28.5922 H   0  0  0  0  0  0  0  0  0  0  0  0
   17.3562   12.7810   28.7643 H   0  0  0  0  0  0  0  0  0  0  0  0
   15.5351   10.0307   32.4576 H   0  0  0  0  0  0  0  0  0  0  0  0
   19.3141    9.8563   30.3621 H   0  0  0  0  0  0  0  0  0  0  0  0
   20.6584    7.7873   30.2460 H   0  0  0  0  0  0  0  0  0  0  0  0
   27.1623    8.0320   29.7210 H   0  0  0  0  0  0  0  0  0  0  0  0
   26.3926    9.6037   29.7863 H   0  0  0  0  0  0  0  0  0  0  0  0
   28.1774   10.4654   31.2968 H   0  0  0  0  0  0  0  0  0  0  0  0
   28.9009    9.7911   29.8597 H   0  0  0  0  0  0  0  0  0  0  0  0
   29.1221    7.5304   33.2967 H   0  0  0  0  0  0  0  0  0  0  0  0
   28.3258    9.0831   33.4187 H   0  0  0  0  0  0  0  0  0  0  0  0
   26.6168    7.2704   33.4011 H   0  0  0  0  0  0  0  0  0  0  0  0
   27.3122    6.6056   31.9371 H   0  0  0  0  0  0  0  0  0  0  0  0
   25.9779    9.3493   32.2180 H   0  0  0  0  0  0  0  0  0  0  0  0
   23.6442   13.5997   31.9758 H   0  0  0  0  0  0  0  0  0  0  0  0
   24.1815   12.0906   32.7057 H   0  0  0  0  0  0  0  0  0  0  0  0
   24.5507   12.4301   31.0171 H   0  0  0  0  0  0  0  0  0  0  0  0
   25.0602    6.7710   31.0163 H   0  0  0  0  0  0  0  0  0  0  0  0
   17.8089   11.0019   32.6427 H   0  0  0  0  0  0  0  0  0  0  0  0
  1  2  1  0
  1 10  1  0
  1 33  1  0
  1 34  1  0
  2  6  1  0
  2 35  1  0
  2 36  1  0
  3  4  1  0
  3  6  1  0
  3 37  1  0
  3 38  1  0
  4 10  1  0
  4 39  1  0
  4 40  1  0
  5  8  2  0
  5 13  1  0
  5 30  1  0
  7 18  1  0
  7 24  2  0
  7 25  1  0
  8 19  1  0
  8 46  1  0
  9 23  1  0
  9 26  2  0
  9 27  1  0
 10 27  1  0
 10 41  1  0
 11 12  1  0
 11 16  2  0
 11 17  1  0
 12 18  2  0
 12 31  1  0
 13 14  2  0
 13 21  1  0
 14 15  1  0
 14 28  1  0
 15 19  2  0
 15 29  1  0
 16 25  1  0
 16 26  1  0
 17 23  2  0
 17 32  1  0
 18 22  1  0
 19 22  1  0
 20 25  1  0
 20 42  1  0
 20 43  1  0
 20 44  1  0
 27 45  1  0
M  END
>  <r_exp_dg>  (19) 
-10.7

>  <AmberAM1BCCCache>  (19) 
gASVxQMAAAAAAABdlCiMFm51bXB5Ll9jb3JlLm11bHRpYXJyYXmUjAZzY2FsYXKUk5SMBW51bXB5lIwFZHR5cGWUk5SMAmY4lImIh5RSlChLA4wBPJROTk5K/////0r/////SwB0lGJDCGTMthyOyfi/lIaUUpRoA2gJQwhNNnc+bR34P5SGlFKUaANoCUMITTZ3Pm0d+D+UhpRSlGgDaAlDCGTMthyOyfi/lIaUUpRoA2gJQwjKRhzbMwj6v5SGlFKUaANoCUMIfDPTfnd0E8CUhpRSlGgDaAlDCAIvkENzeCBAlIaUUpRoA2gJQwiES6Ay7Nf5v5SGlFKUaANoCUMI5JDvrn7BJUCUhpRSlGgDaAlDCJGQ5AzdpQRAlIaUUpRoA2gJQwgZW2mowOoTwJSGlFKUaANoCUMIvgd/75Hymr+UhpRSlGgDaAlDCCfE738HdfI/lIaUUpRoA2gJQwjKRhzbMwj6v5SGlFKUaANoCUMIhEugMuzX+b+UhpRSlGgDaAlDCEQ3/PqdYR1AlIaUUpRoA2gJQwg1smTeVnoYQJSGlFKUaANoCUMI4SWbi45m4b+UhpRSlGgDaAlDCE7V0gml0PM/lIaUUpRoA2gJQwgfWr3eAYHqP5SGlFKUaANoCUMIBJZILsb0+r+UhpRSlGgDaAlDCNTu3gUbPQXAlIaUUpRoA2gJQwg0GQvnyeohwJSGlFKUaANoCUMI33Qr3RAUHMCUhpRSlGgDaAlDCEVx9mjBDRTAlIaUUpRoA2gJQwgQeyG5kh4jwJSGlFKUaANoCUMIpX8SoXVyI8CUhpRSlGgDaAlDCAhlnISNYPw/lIaUUpRoA2gJQwhOYBgt1ZD8P5SGlFKUaANoCUMICGWchI1g/D+UhpRSlGgDaAlDCJJBPvSmyv0/lIaUUpRoA2gJQwgMp9Cb9vHYP5SGlFKUaANoCUMIEoTMmuTJ5j+UhpRSlGgDaAlDCBKEzJrkyeY/lIaUUpRoA2gJQwijyMaP1Q3kP5SGlFKUaANoCUMIo8jGj9UN5D+UhpRSlGgDaAlDCKPIxo/VDeQ/lIaUUpRoA2gJQwijyMaP1Q3kP5SGlFKUaANoCUMIEoTMmuTJ5j+UhpRSlGgDaAlDCBKEzJrkyeY/lIaUUpRoA2gJQwgvwZj8kojwP5SGlFKUaANoCUMI4FvqskVk6D+UhpRSlGgDaAlDCOBb6rJFZOg/lIaUUpRoA2gJQwjgW+qyRWToP5SGlFKUaANoCUMIpnd1vemvFECUhpRSlGgDaAlDCE5gGC3VkPw/lIaUUpRlLg==

>  <experimental dG reference units>  (19) 
kcal/mol

>  <experimental dG reference field>  (19) 
r_exp_dg

>  <kJ/mol experimental dG>  (19) 
-44.7688

>  <kcal/mol experimental dG>  (19) 
-10.7

$$$$
2c
     RDKit          3D

 45 48  0  0  1  0  0  0  0  0999 V2000
   26.9906    8.8856   30.3684 C   0  0  0  0  0  0  0  0  0  0  0  0
   28.3368    9.5228   30.7580 C   0  0  0  0  0  0  0  0  0  0  0  0
   28.4575    8.2179   32.7780 C   0  0  0  0  0  0  0  0  0  0  0  0
   27.1100    7.5379   32.4784 C   0  0  0  0  0  0  0  0  0  0  0  0
   29.0942    8.6106   31.5584 O   0  0  0  0  0  0  0  0  0  0  0  0
   21.3330   12.5360   31.2560 C   0  0  0  0  0  0  0  0  0  0  0  0
   23.8140    8.4300   31.0230 C   0  0  0  0  0  0  0  0  0  0  0  0
   26.2276    8.4610   31.6297 C   0  0  0  0  0  0  0  0  0  0  0  0
   21.4260    9.7450   30.7760 C   0  0  0  0  0  0  0  0  0  0  0  0
   20.2000   10.4070   30.6460 C   0  0  0  0  0  0  0  0  0  0  0  0
   22.5820   10.4440   31.1400 C   0  0  0  0  0  0  0  0  0  0  0  0
   21.5200    8.3710   30.5390 C   0  0  0  0  0  0  0  0  0  0  0  0
   20.1110   11.7830   30.8770 C   0  0  0  0  0  0  0  0  0  0  0  0
   23.7894   12.5348   31.7899 C   0  0  0  0  0  0  0  0  0  0  0  0
   22.6990    7.7390   30.6640 N   0  0  0  0  0  0  0  0  0  0  0  0
   21.2570   13.7670   31.4640 O   0  0  0  0  0  0  0  0  0  0  0  0
   22.5560   11.8400   31.3820 N   0  0  0  0  0  0  0  0  0  0  0  0
   23.7460    9.7650   31.2550 N   0  0  0  0  0  0  0  0  0  0  0  0
   25.0064    7.7575   31.2474 N   0  0  0  0  0  0  0  0  0  0  0  0
   19.3249    9.8571   30.3244 H   0  0  0  0  0  0  0  0  0  0  0  0
   20.6586    7.7857   30.2476 H   0  0  0  0  0  0  0  0  0  0  0  0
   27.1698    8.0203   29.7289 H   0  0  0  0  0  0  0  0  0  0  0  0
   26.4024    9.5936   29.7834 H   0  0  0  0  0  0  0  0  0  0  0  0
   28.1818   10.4589   31.2986 H   0  0  0  0  0  0  0  0  0  0  0  0
   28.9103    9.7780   29.8674 H   0  0  0  0  0  0  0  0  0  0  0  0
   29.1132    7.5311   33.3149 H   0  0  0  0  0  0  0  0  0  0  0  0
   28.3193    9.0857   33.4266 H   0  0  0  0  0  0  0  0  0  0  0  0
   26.6070    7.2768   33.4103 H   0  0  0  0  0  0  0  0  0  0  0  0
   27.3068    6.6032   31.9524 H   0  0  0  0  0  0  0  0  0  0  0  0
   25.9775    9.3513   32.2147 H   0  0  0  0  0  0  0  0  0  0  0  0
   24.5503   12.4310   31.0161 H   0  0  0  0  0  0  0  0  0  0  0  0
   24.1812   12.0913   32.7056 H   0  0  0  0  0  0  0  0  0  0  0  0
   23.6428   13.5998   31.9751 H   0  0  0  0  0  0  0  0  0  0  0  0
   25.0588    6.7708   31.0167 H   0  0  0  0  0  0  0  0  0  0  0  0
   16.2784   13.2984   29.7385 C   0  0  0  0  0  0  0  0  0  0  0  0
   16.3518   12.2852   30.6892 C   0  0  0  0  0  0  0  0  0  0  0  0
   17.5919   11.8563   31.1574 C   0  0  0  0  0  0  0  0  0  0  0  0
   18.7823   12.4065   30.6315 C   0  0  0  0  0  0  0  0  0  0  0  0
   18.6775   13.4936   29.7533 C   0  0  0  0  0  0  0  0  0  0  0  0
   17.4371   13.9226   29.2914 C   0  0  0  0  0  0  0  0  0  0  0  0
   15.3224   13.6385   29.3815 H   0  0  0  0  0  0  0  0  0  0  0  0
   15.4451   11.8379   31.0713 H   0  0  0  0  0  0  0  0  0  0  0  0
   17.5987   10.6390   32.3884 Cl  0  0  0  0  0  0  0  0  0  0  0  0
   19.5608   13.9804   29.3648 H   0  0  0  0  0  0  0  0  0  0  0  0
   17.3783   14.7333   28.5766 H   0  0  0  0  0  0  0  0  0  0  0  0
  1  2  1  0
  1  8  1  0
  1 22  1  0
  1 23  1  0
  2  5  1  0
  2 24  1  0
  2 25  1  0
  3  4  1  0
  3  5  1  0
  3 26  1  0
  3 27  1  0
  4  8  1  0
  4 28  1  0
  4 29  1  0
  6 13  1  0
  6 16  2  0
  6 17  1  0
  7 15  1  0
  7 18  2  0
  7 19  1  0
  8 19  1  0
  8 30  1  0
  9 10  1  0
  9 11  2  0
  9 12  1  0
 10 13  2  0
 10 20  1  0
 11 17  1  0
 11 18  1  0
 12 15  2  0
 12 21  1  0
 13 38  1  0
 14 17  1  0
 14 31  1  0
 14 32  1  0
 14 33  1  0
 19 34  1  0
 35 36  2  0
 35 40  1  0
 35 41  1  0
 36 37  1  0
 36 42  1  0
 37 38  2  0
 37 43  1  0
 38 39  1  0
 39 40  2  0
 39 44  1  0
 40 45  1  0
M  END
>  <r_exp_dg>  (20) 
-10.46

>  <AmberAM1BCCCache>  (20) 
gASVsgMAAAAAAABdlCiMFm51bXB5Ll9jb3JlLm11bHRpYXJyYXmUjAZzY2FsYXKUk5SMBW51bXB5lIwFZHR5cGWUk5SMAmY4lImIh5RSlChLA4wBPJROTk5K/////0r/////SwB0lGJDCP+gMawgyvi/lIaUUpRoA2gJQwiyYfyu2hz4P5SGlFKUaANoCUMIsmH8rtoc+D+UhpRSlGgDaAlDCP+gMawgyvi/lIaUUpRoA2gJQwh059AMroATwJSGlFKUaANoCUMIKMx5WN7MIECUhpRSlGgDaAlDCK44wohIqSVAlIaUUpRoA2gJQwjPKcoGXoEEQJSGlFKUaANoCUMInRIKeMHSE8CUhpRSlGgDaAlDCCb3mtFradA/lIaUUpRoA2gJQwhLg/5sZ1UdQJSGlFKUaANoCUMIPP5mUCBuGECUhpRSlGgDaAlDCPk42SZJ8Py/lIaUUpRoA2gJQwjosMe/3H/qP5SGlFKUaANoCUMIMfMJLuXwIcCUhpRSlGgDaAlDCNYO04nRKR3AlIaUUpRoA2gJQwhsJtUM5g0UwJSGlFKUaANoCUMIo9UQC6UeI8CUhpRSlGgDaAlDCGfb4gh2ZiPAlIaUUpRoA2gJQwgQjl/JHnj8P5SGlFKUaANoCUMIiGf1u40u2D+UhpRSlGgDaAlDCJffWtN3mOY/lIaUUpRoA2gJQwiX31rTd5jmP5SGlFKUaANoCUMIJyRVyGjc4z+UhpRSlGgDaAlDCCckVcho3OM/lIaUUpRoA2gJQwgnJFXIaNzjP5SGlFKUaANoCUMIJyRVyGjc4z+UhpRSlGgDaAlDCJffWtN3mOY/lIaUUpRoA2gJQwiX31rTd5jmP5SGlFKUaANoCUMIk+wdbQCI8D+UhpRSlGgDaAlDCH9ztrpp4uc/lIaUUpRoA2gJQwh/c7a6aeLnP5SGlFKUaANoCUMIf3O2umni5z+UhpRSlGgDaAlDCAvGOVuPixRAlIaUUpRoA2gJQwhsg+/vneL1v5SGlFKUaANoCUMIOUG3JomG+L+UhpRSlGgDaAlDCLjgMMsCZNU/lIaUUpRoA2gJQwhInyefjYPWv5SGlFKUaANoCUMI0gdggsea8L+UhpRSlGgDaAlDCDlBtyaJhvi/lIaUUpRoA2gJQwhE0JeSM9T5P5SGlFKUaANoCUMItKXzfriG+z+UhpRSlGgDaAlDCJczLkVz8fK/lIaUUpRoA2gJQwgQjl/JHnj8P5SGlFKUaANoCUMIicsTO3sE+j+UhpRSlGUu

>  <experimental dG reference units>  (20) 
kcal/mol

>  <experimental dG reference field>  (20) 
r_exp_dg

>  <kJ/mol experimental dG>  (20) 
-43.76464000000001

>  <kcal/mol experimental dG>  (20) 
-10.46

$$$$
3flq
     RDKit          3D

 47 49  0  0  1  0  0  0  0  0999 V2000
   15.9290   10.6050   31.6556 C   0  0  0  0  0  0  0  0  0  0  0  0
   21.3330   12.5360   31.2560 C   0  0  0  0  0  0  0  0  0  0  0  0
   17.2149   11.1328   31.7490 C   0  0  0  0  0  0  0  0  0  0  0  0
   23.8140    8.4300   31.0230 C   0  0  0  0  0  0  0  0  0  0  0  0
   26.1062    8.2221   31.9800 C   0  0  1  0  0  0  0  0  0  0  0  0
   21.4260    9.7450   30.7760 C   0  0  0  0  0  0  0  0  0  0  0  0
   20.2000   10.4070   30.6460 C   0  0  0  0  0  0  0  0  0  0  0  0
   15.1500   10.8615   30.5312 C   0  0  0  0  0  0  0  0  0  0  0  0
   15.6440   11.6664   29.5093 C   0  0  0  0  0  0  0  0  0  0  0  0
   16.9254   12.2086   29.6017 C   0  0  0  0  0  0  0  0  0  0  0  0
   22.5820   10.4440   31.1400 C   0  0  0  0  0  0  0  0  0  0  0  0
   21.5200    8.3710   30.5390 C   0  0  0  0  0  0  0  0  0  0  0  0
   20.1110   11.7830   30.8770 C   0  0  0  0  0  0  0  0  0  0  0  0
   17.7269   11.9267   30.7092 C   0  0  0  0  0  0  0  0  0  0  0  0
   23.7896   12.5361   31.7865 C   0  0  0  0  0  0  0  0  0  0  0  0
   17.9623   10.8642   32.8439 F   0  0  0  0  0  0  0  0  0  0  0  0
   13.9218   10.3187   30.4185 F   0  0  0  0  0  0  0  0  0  0  0  0
   18.9657   12.5218   30.7790 O   0  0  0  0  0  0  0  0  0  0  0  0
   22.6990    7.7390   30.6640 N   0  0  0  0  0  0  0  0  0  0  0  0
   21.2570   13.7670   31.4640 O   0  0  0  0  0  0  0  0  0  0  0  0
   22.5560   11.8400   31.3820 N   0  0  0  0  0  0  0  0  0  0  0  0
   23.7460    9.7650   31.2550 N   0  0  0  0  0  0  0  0  0  0  0  0
   24.9845    7.7222   31.2123 N   0  0  0  0  0  0  0  0  0  0  0  0
   15.0295   11.8630   28.6449 H   0  0  0  0  0  0  0  0  0  0  0  0
   17.3036   12.8402   28.8106 H   0  0  0  0  0  0  0  0  0  0  0  0
   15.5473    9.9749   32.4445 H   0  0  0  0  0  0  0  0  0  0  0  0
   19.3168    9.8550   30.3580 H   0  0  0  0  0  0  0  0  0  0  0  0
   20.6585    7.7868   30.2464 H   0  0  0  0  0  0  0  0  0  0  0  0
   25.8847    9.2358   32.3275 H   0  0  0  0  0  0  0  0  0  0  0  0
   23.6402   13.5977   31.9883 H   0  0  0  0  0  0  0  0  0  0  0  0
   24.5419   12.4474   31.0026 H   0  0  0  0  0  0  0  0  0  0  0  0
   24.1944   12.0826   32.6917 H   0  0  0  0  0  0  0  0  0  0  0  0
   24.9708    6.7270   31.0155 H   0  0  0  0  0  0  0  0  0  0  0  0
   26.3079    7.3261   33.2090 C   0  0  0  0  0  0  0  0  0  0  0  0
   27.1168    7.6832   33.8444 H   0  0  0  0  0  0  0  0  0  0  0  0
   25.4076    7.2882   33.8216 H   0  0  0  0  0  0  0  0  0  0  0  0
   26.5463    6.3004   32.9252 H   0  0  0  0  0  0  0  0  0  0  0  0
   27.3477    8.2537   31.0882 C   0  0  0  0  0  0  0  0  0  0  0  0
   27.8940    7.3149   31.1018 H   0  0  0  0  0  0  0  0  0  0  0  0
   27.1111    8.4884   30.0534 H   0  0  0  0  0  0  0  0  0  0  0  0
   28.5330    9.5893   31.6099 S   0  0  0  0  0  0  0  0  0  0  0  0
   28.6348    9.6140   33.0719 O   0  0  0  0  0  0  0  0  0  0  0  0
   29.7472    9.4272   30.8114 O   0  0  0  0  0  0  0  0  0  0  0  0
   27.7042   11.1521   31.0765 C   0  0  0  0  0  0  0  0  0  0  0  0
   28.3772   11.9716   31.3093 H   0  0  0  0  0  0  0  0  0  0  0  0
   26.7659   11.2462   31.6125 H   0  0  0  0  0  0  0  0  0  0  0  0
   27.5445   11.0941   30.0044 H   0  0  0  0  0  0  0  0  0  0  0  0
  1  3  2  0
  1  8  1  0
  1 26  1  0
  2 13  1  0
  2 20  2  0
  2 21  1  0
  3 14  1  0
  3 16  1  0
  4 19  1  0
  4 22  2  0
  4 23  1  0
  5 23  1  0
  5 29  1  1
  5 34  1  0
  5 38  1  0
  6  7  1  0
  6 11  2  0
  6 12  1  0
  7 13  2  0
  7 27  1  0
  8  9  2  0
  8 17  1  0
  9 10  1  0
  9 24  1  0
 10 14  2  0
 10 25  1  0
 11 21  1  0
 11 22  1  0
 12 19  2  0
 12 28  1  0
 13 18  1  0
 14 18  1  0
 15 21  1  0
 15 30  1  0
 15 31  1  0
 15 32  1  0
 23 33  1  0
 34 35  1  0
 34 36  1  0
 34 37  1  0
 38 39  1  0
 38 40  1  0
 38 41  1  0
 41 42  2  0
 41 43  2  0
 41 44  1  0
 44 45  1  0
 44 46  1  0
 44 47  1  0
M  END
>  <r_exp_dg>  (21) 
-9.93

>  <AmberAM1BCCCache>  (21) 
gASV2AMAAAAAAABdlCiMFm51bXB5Ll9jb3JlLm11bHRpYXJyYXmUjAZzY2FsYXKUk5SMBW51bXB5lIwFZHR5cGWUk5SMAmY4lImIh5RSlChLA4wBPJROTk5K/////0r/////SwB0lGJDCHLKvcyBtALAlIaUUpRoA2gJQwjJb3r20IogQJSGlFKUaANoCUMII+wEBh3l+z+UhpRSlGgDaAlDCM0HWXM/lSVAlIaUUpRoA2gJQwhQexr1jnUIQJSGlFKUaANoCUMIouDaxZl9E8CUhpRSlGgDaAlDCFVW4s+xSGK/lIaUUpRoA2gJQwg8APZ57Bf7P5SGlFKUaANoCUMIb6oqaSly/7+UhpRSlGgDaAlDCDR3FXh2LPK/lIaUUpRoA2gJQwjpvxbk7T0dQJSGlFKUaANoCUMIBPdjAOF9GECUhpRSlGgDaAlDCMkBY6cZMuG/lIaUUpRoA2gJQwj0EYrYdLvgP5SGlFKUaANoCUMICoq/ncM86j+UhpRSlGgDaAlDCFzU8IvJpfe/lIaUUpRoA2gJQwjBLP+uITr5v5SGlFKUaANoCUMIGzP0QjSoBMCUhpRSlGgDaAlDCARZET9j0iHAlIaUUpRoA2gJQwhvwWts5KUcwJSGlFKUaANoCUMIiO5A7Rf1E8CUhpRSlGgDaAlDCIpLdv1h/yLAlIaUUpRoA2gJQwghnnsgo2cjwJSGlFKUaANoCUMI8NjOyJCu/T+UhpRSlGgDaAlDCABJCdRhQQBAlIaUUpRoA2gJQwimqaZdXZH/P5SGlFKUaANoCUMIkLy2uz7Q/j+UhpRSlGgDaAlDCNq40nUYhts/lIaUUpRoA2gJQwgiv8P6/W/xP5SGlFKUaANoCUMIY9wdgLeY6D+UhpRSlGgDaAlDCGPcHYC3mOg/lIaUUpRoA2gJQwhj3B2At5joP5SGlFKUaANoCUMIQYNC3QxuFECUhpRSlGgDaAlDCLxJrBMMHfq/lIaUUpRoA2gJQwiJxByMq9zlP5SGlFKUaANoCUMIicQcjKvc5T+UhpRSlGgDaAlDCInEHIyr3OU/lIaUUpRoA2gJQwhxEFCsQL0PwJSGlFKUaANoCUMIx7egMQHW9j+UhpRSlGgDaAlDCMe3oDEB1vY/lIaUUpRoA2gJQwiob53neZsvQJSGlFKUaANoCUMIcvP7fSecHsCUhpRSlGgDaAlDCHLz+30nnB7AlIaUUpRoA2gJQwgHZEZL7dIRwJSGlFKUaANoCUMIU66YgpA29z+UhpRSlGgDaAlDCFOumIKQNvc/lIaUUpRoA2gJQwhTrpiCkDb3P5SGlFKUZS4=

>  <experimental dG reference units>  (21) 
kcal/mol

>  <experimental dG reference field>  (21) 
r_exp_dg

>  <kJ/mol experimental dG>  (21) 
-41.54712

>  <kcal/mol experimental dG>  (21) 
-9.93

$$$$
2p
     RDKit          3D

 58 61  0  0  1  0  0  0  0  0999 V2000
   26.9964    8.8935   30.3756 C   0  0  0  0  0  0  0  0  0  0  0  0
   28.3512    9.5130   30.7669 C   0  0  0  0  0  0  0  0  0  0  0  0
   28.4584    8.2026   32.7819 C   0  0  0  0  0  0  0  0  0  0  0  0
   27.1065    7.5335   32.4797 C   0  0  0  0  0  0  0  0  0  0  0  0
   15.9295   10.6053   31.6570 C   0  0  0  0  0  0  0  0  0  0  0  0
   29.0990    8.5900   31.5629 O   0  0  0  0  0  0  0  0  0  0  0  0
   21.3330   12.5360   31.2560 C   0  0  0  0  0  0  0  0  0  0  0  0
   17.2154   11.1332   31.7500 C   0  0  0  0  0  0  0  0  0  0  0  0
   23.8140    8.4300   31.0230 C   0  0  0  0  0  0  0  0  0  0  0  0
   26.2287    8.4631   31.6328 C   0  0  0  0  0  0  0  0  0  0  0  0
   21.4260    9.7450   30.7760 C   0  0  0  0  0  0  0  0  0  0  0  0
   20.2000   10.4070   30.6460 C   0  0  0  0  0  0  0  0  0  0  0  0
   15.1500   10.8620   30.5330 C   0  0  0  0  0  0  0  0  0  0  0  0
   15.6435   11.6677   29.5113 C   0  0  0  0  0  0  0  0  0  0  0  0
   16.9249   12.2098   29.6034 C   0  0  0  0  0  0  0  0  0  0  0  0
   22.5820   10.4440   31.1400 C   0  0  0  0  0  0  0  0  0  0  0  0
   21.5200    8.3710   30.5390 C   0  0  0  0  0  0  0  0  0  0  0  0
   20.1110   11.7830   30.8770 C   0  0  0  0  0  0  0  0  0  0  0  0
   17.7269   11.9273   30.7103 C   0  0  0  0  0  0  0  0  0  0  0  0
   23.8192   12.5661   31.6225 C   0  0  0  0  0  0  0  0  0  0  0  0
   17.9632   10.8645   32.8447 F   0  0  0  0  0  0  0  0  0  0  0  0
   13.9220   10.3187   30.4205 F   0  0  0  0  0  0  0  0  0  0  0  0
   18.9659   12.5221   30.7795 O   0  0  0  0  0  0  0  0  0  0  0  0
   22.6990    7.7390   30.6640 N   0  0  0  0  0  0  0  0  0  0  0  0
   21.2570   13.7670   31.4640 O   0  0  0  0  0  0  0  0  0  0  0  0
   22.5560   11.8400   31.3820 N   0  0  0  0  0  0  0  0  0  0  0  0
   23.7460    9.7650   31.2550 N   0  0  0  0  0  0  0  0  0  0  0  0
   25.0088    7.7600   31.2440 N   0  0  0  0  0  0  0  0  0  0  0  0
   15.0286   11.8646   28.6473 H   0  0  0  0  0  0  0  0  0  0  0  0
   17.3027   12.8420   28.8125 H   0  0  0  0  0  0  0  0  0  0  0  0
   15.5480    9.9750   32.4458 H   0  0  0  0  0  0  0  0  0  0  0  0
   19.3169    9.8548   30.3581 H   0  0  0  0  0  0  0  0  0  0  0  0
   20.6587    7.7867   30.2465 H   0  0  0  0  0  0  0  0  0  0  0  0
   26.4135    9.6119   29.7976 H   0  0  0  0  0  0  0  0  0  0  0  0
   27.1664    8.0325   29.7278 H   0  0  0  0  0  0  0  0  0  0  0  0
   28.2112   10.4468   31.3144 H   0  0  0  0  0  0  0  0  0  0  0  0
   28.9265    9.7671   29.8769 H   0  0  0  0  0  0  0  0  0  0  0  0
   29.1080    7.5100   33.3187 H   0  0  0  0  0  0  0  0  0  0  0  0
   28.3265    9.0711   33.4309 H   0  0  0  0  0  0  0  0  0  0  0  0
   26.6012    7.2724   33.4103 H   0  0  0  0  0  0  0  0  0  0  0  0
   27.2985    6.5993   31.9513 H   0  0  0  0  0  0  0  0  0  0  0  0
   25.9769    9.3506   32.2211 H   0  0  0  0  0  0  0  0  0  0  0  0
   23.6470   13.4836   32.1897 H   0  0  0  0  0  0  0  0  0  0  0  0
   24.4417   11.9499   32.2739 H   0  0  0  0  0  0  0  0  0  0  0  0
   25.0629    6.7730   31.0144 H   0  0  0  0  0  0  0  0  0  0  0  0
   24.5780   12.8820   30.3126 C   0  0  0  0  0  0  0  0  0  0  0  0
   24.4118   12.0757   29.5939 H   0  0  0  0  0  0  0  0  0  0  0  0
   24.1484   13.7732   29.8493 H   0  0  0  0  0  0  0  0  0  0  0  0
   26.1075   13.0395   30.4783 C   0  0  0  0  0  0  0  0  0  0  0  0
   26.5904   13.2421   29.5238 H   0  0  0  0  0  0  0  0  0  0  0  0
   26.5700   12.1498   30.8964 H   0  0  0  0  0  0  0  0  0  0  0  0
   26.6024   14.4556   31.5966 S   0  0  0  0  0  0  0  0  0  0  0  0
   26.0143   15.6947   31.0795 O   0  0  0  0  0  0  0  0  0  0  0  0
   26.3637   14.0536   32.9851 O   0  0  0  0  0  0  0  0  0  0  0  0
   28.4310   14.5705   31.3690 C   0  0  0  0  0  0  0  0  0  0  0  0
   28.8680   13.6318   31.6960 H   0  0  0  0  0  0  0  0  0  0  0  0
   28.6279   14.7325   30.3133 H   0  0  0  0  0  0  0  0  0  0  0  0
   28.7888   15.4004   31.9698 H   0  0  0  0  0  0  0  0  0  0  0  0
  1  2  1  0
  1 10  1  0
  1 34  1  0
  1 35  1  0
  2  6  1  0
  2 36  1  0
  2 37  1  0
  3  4  1  0
  3  6  1  0
  3 38  1  0
  3 39  1  0
  4 10  1  0
  4 40  1  0
  4 41  1  0
  5  8  2  0
  5 13  1  0
  5 31  1  0
  7 18  1  0
  7 25  2  0
  7 26  1  0
  8 19  1  0
  8 21  1  0
  9 24  1  0
  9 27  2  0
  9 28  1  0
 10 28  1  0
 10 42  1  0
 11 12  1  0
 11 16  2  0
 11 17  1  0
 12 18  2  0
 12 32  1  0
 13 14  2  0
 13 22  1  0
 14 15  1  0
 14 29  1  0
 15 19  2  0
 15 30  1  0
 16 26  1  0
 16 27  1  0
 17 24  2  0
 17 33  1  0
 18 23  1  0
 19 23  1  0
 20 26  1  0
 20 43  1  0
 20 44  1  0
 20 46  1  0
 28 45  1  0
 46 47  1  0
 46 48  1  0
 46 49  1  0
 49 50  1  0
 49 51  1  0
 49 52  1  0
 52 53  2  0
 52 54  2  0
 52 55  1  0
 55 56  1  0
 55 57  1  0
 55 58  1  0
M  END
>  <r_exp_dg>  (22) 
-11.2

>  <AmberAM1BCCCache>  (22) 
gASVqQQAAAAAAABdlCiMFm51bXB5Ll9jb3JlLm11bHRpYXJyYXmUjAZzY2FsYXKUk5SMBW51bXB5lIwFZHR5cGWUk5SMAmY4lImIh5RSlChLA4wBPJROTk5K/////0r/////SwB0lGJDCPHGsuOHmvi/lIaUUpRoA2gJQwgfPj2jTzT4P5SGlFKUaANoCUMIHz49o080+D+UhpRSlGgDaAlDCPHGsuOHmvi/lIaUUpRoA2gJQwivylEMoGoDwJSGlFKUaANoCUMI17oWJVqSE8CUhpRSlGgDaAlDCI5Y8QF2piBAlIaUUpRoA2gJQwiQtZR3w5v7P5SGlFKUaANoCUMINzwijmbdJUCUhpRSlGgDaAlDCPkAR9Z1eAVAlIaUUpRoA2gJQwinzuG5fs0TwJSGlFKUaANoCUMICUtusHSWsz+UhpRSlGgDaAlDCHTL+1gZx/w/lIaUUpRoA2gJQwgHfHF3Y20AwJSGlFKUaANoCUMIpZNdNmmO7L+UhpRSlGgDaAlDCLfDg+nffh1AlIaUUpRoA2gJQwiHpazVxJIYQJSGlFKUaANoCUMITCCsyNLc4r+UhpRSlGgDaAlDCDDpsWfO3tU/lIaUUpRoA2gJQwjHGy720WfxP5SGlFKUaANoCUMIoSyS1sWh+L+UhpRSlGgDaAlDCEy8yR4pB/m/lIaUUpRoA2gJQwgc17A+hfYEwJSGlFKUaANoCUMIa4Yn9L7ZIcCUhpRSlGgDaAlDCERfZmuqWR3AlIaUUpRoA2gJQwj3Rqsr8xsUwJSGlFKUaANoCUMIgdXA13tKI8CUhpRSlGgDaAlDCASpE+ekiCPAlIaUUpRoA2gJQwi1rCEg6wD+P5SGlFKUaANoCUMIHwLfUiFXAUCUhpRSlGgDaAlDCMPtwWxUfv8/lIaUUpRoA2gJQwgXXook8Rj/P5SGlFKUaANoCUMIQW5JhBXG2j+UhpRSlGgDaAlDCArqyjrQm+c/lIaUUpRoA2gJQwgK6so60JvnP5SGlFKUaANoCUMIUoSirk9/4z+UhpRSlGgDaAlDCFKEoq5Pf+M/lIaUUpRoA2gJQwhShKKuT3/jP5SGlFKUaANoCUMIUoSirk9/4z+UhpRSlGgDaAlDCArqyjrQm+c/lIaUUpRoA2gJQwgK6so60JvnP5SGlFKUaANoCUMI0wg3poOM7j+UhpRSlGgDaAlDCC9cUvk1RO0/lIaUUpRoA2gJQwgvXFL5NUTtP5SGlFKUaANoCUMIC5xbjRHeFECUhpRSlGgDaAlDCMTopV1fKem/lIaUUpRoA2gJQwhjuOCjwJbpP5SGlFKUaANoCUMIY7jgo8CW6T+UhpRSlGgDaAlDCIa/rrtwEg7AlIaUUpRoA2gJQwi83S3GH+z1P5SGlFKUaANoCUMIvN0txh/s9T+UhpRSlGgDaAlDCC2KbI66hC9AlIaUUpRoA2gJQwiB+49VyMYewJSGlFKUaANoCUMIgfuPVcjGHsCUhpRSlGgDaAlDCJAdn5QjrRHAlIaUUpRoA2gJQwgYuJHYGtv2P5SGlFKUaANoCUMIGLiR2Brb9j+UhpRSlGgDaAlDCBi4kdga2/Y/lIaUUpRlLg==

>  <experimental dG reference units>  (22) 
kcal/mol

>  <experimental dG reference field>  (22) 
r_exp_dg

>  <kJ/mol experimental dG>  (22) 
-46.8608

>  <kcal/mol experimental dG>  (22) 
-11.2

$$$$
2n
     RDKit          3D

 53 56  0  0  1  0  0  0  0  0999 V2000
   26.9662    8.9252   30.3484 C   0  0  0  0  0  0  0  0  0  0  0  0
   28.3118    9.5712   30.7249 C   0  0  0  0  0  0  0  0  0  0  0  0
   28.4805    8.2369   32.7224 C   0  0  0  0  0  0  0  0  0  0  0  0
   27.1364    7.5458   32.4340 C   0  0  0  0  0  0  0  0  0  0  0  0
   15.9285   10.6063   31.6543 C   0  0  0  0  0  0  0  0  0  0  0  0
   29.0925    8.6561   31.4991 O   0  0  0  0  0  0  0  0  0  0  0  0
   21.3330   12.5360   31.2560 C   0  0  0  0  0  0  0  0  0  0  0  0
   17.2145   11.1338   31.7481 C   0  0  0  0  0  0  0  0  0  0  0  0
   23.8140    8.4300   31.0230 C   0  0  0  0  0  0  0  0  0  0  0  0
   26.2294    8.4718   31.6155 C   0  0  0  0  0  0  0  0  0  0  0  0
   21.4260    9.7450   30.7760 C   0  0  0  0  0  0  0  0  0  0  0  0
   20.2000   10.4070   30.6460 C   0  0  0  0  0  0  0  0  0  0  0  0
   15.1501   10.8625   30.5295 C   0  0  0  0  0  0  0  0  0  0  0  0
   15.6447   11.6670   29.5075 C   0  0  0  0  0  0  0  0  0  0  0  0
   16.9262   12.2089   29.6003 C   0  0  0  0  0  0  0  0  0  0  0  0
   22.5820   10.4440   31.1400 C   0  0  0  0  0  0  0  0  0  0  0  0
   21.5200    8.3710   30.5390 C   0  0  0  0  0  0  0  0  0  0  0  0
   20.1110   11.7830   30.8770 C   0  0  0  0  0  0  0  0  0  0  0  0
   17.7271   11.9271   30.7083 C   0  0  0  0  0  0  0  0  0  0  0  0
   23.7546   12.5519   31.8708 C   0  0  0  0  0  0  0  0  0  0  0  0
   17.9614   10.8656   32.8435 F   0  0  0  0  0  0  0  0  0  0  0  0
   13.9218   10.3198   30.4165 F   0  0  0  0  0  0  0  0  0  0  0  0
   18.9660   12.5220   30.7786 O   0  0  0  0  0  0  0  0  0  0  0  0
   22.6990    7.7390   30.6640 N   0  0  0  0  0  0  0  0  0  0  0  0
   21.2570   13.7670   31.4640 O   0  0  0  0  0  0  0  0  0  0  0  0
   22.5560   11.8400   31.3820 N   0  0  0  0  0  0  0  0  0  0  0  0
   23.7460    9.7650   31.2550 N   0  0  0  0  0  0  0  0  0  0  0  0
   25.0093    7.7608   31.2430 N   0  0  0  0  0  0  0  0  0  0  0  0
   15.0306   11.8634   28.6428 H   0  0  0  0  0  0  0  0  0  0  0  0
   17.3049   12.8401   28.8091 H   0  0  0  0  0  0  0  0  0  0  0  0
   15.5462    9.9767   32.4433 H   0  0  0  0  0  0  0  0  0  0  0  0
   19.3170    9.8548   30.3578 H   0  0  0  0  0  0  0  0  0  0  0  0
   20.6586    7.7868   30.2465 H   0  0  0  0  0  0  0  0  0  0  0  0
   27.1436    8.0724   29.6919 H   0  0  0  0  0  0  0  0  0  0  0  0
   26.3603    9.6360   29.7851 H   0  0  0  0  0  0  0  0  0  0  0  0
   28.1559   10.4980   31.2810 H   0  0  0  0  0  0  0  0  0  0  0  0
   28.8674    9.8443   29.8283 H   0  0  0  0  0  0  0  0  0  0  0  0
   29.1529    7.5495   33.2374 H   0  0  0  0  0  0  0  0  0  0  0  0
   28.3430    9.0929   33.3866 H   0  0  0  0  0  0  0  0  0  0  0  0
   26.6520    7.2632   33.3694 H   0  0  0  0  0  0  0  0  0  0  0  0
   27.3353    6.6226   31.8891 H   0  0  0  0  0  0  0  0  0  0  0  0
   25.9786    9.3494   32.2190 H   0  0  0  0  0  0  0  0  0  0  0  0
   23.4523   13.3856   32.5079 H   0  0  0  0  0  0  0  0  0  0  0  0
   24.3197   11.8956   32.5352 H   0  0  0  0  0  0  0  0  0  0  0  0
   25.0651    6.7744   31.0111 H   0  0  0  0  0  0  0  0  0  0  0  0
   24.6695   13.0749   30.7470 C   0  0  0  0  0  0  0  0  0  0  0  0
   25.0914   12.2186   30.2179 H   0  0  0  0  0  0  0  0  0  0  0  0
   24.0870   13.6251   30.0056 H   0  0  0  0  0  0  0  0  0  0  0  0
   25.8169   13.9620   31.2560 C   0  0  0  0  0  0  0  0  0  0  0  0
   26.5278   14.1390   30.4466 H   0  0  0  0  0  0  0  0  0  0  0  0
   26.3693   13.4700   32.0588 H   0  0  0  0  0  0  0  0  0  0  0  0
   25.3266   15.2181   31.6938 O   0  0  0  0  0  0  0  0  0  0  0  0
   24.8445   15.1160   32.5324 H   0  0  0  0  0  0  0  0  0  0  0  0
  1  2  1  0
  1 10  1  0
  1 34  1  0
  1 35  1  0
  2  6  1  0
  2 36  1  0
  2 37  1  0
  3  4  1  0
  3  6  1  0
  3 38  1  0
  3 39  1  0
  4 10  1  0
  4 40  1  0
  4 41  1  0
  5  8  2  0
  5 13  1  0
  5 31  1  0
  7 18  1  0
  7 25  2  0
  7 26  1  0
  8 19  1  0
  8 21  1  0
  9 24  1  0
  9 27  2  0
  9 28  1  0
 10 28  1  0
 10 42  1  0
 11 12  1  0
 11 16  2  0
 11 17  1  0
 12 18  2  0
 12 32  1  0
 13 14  2  0
 13 22  1  0
 14 15  1  0
 14 29  1  0
 15 19  2  0
 15 30  1  0
 16 26  1  0
 16 27  1  0
 17 24  2  0
 17 33  1  0
 18 23  1  0
 19 23  1  0
 20 26  1  0
 20 43  1  0
 20 44  1  0
 20 46  1  0
 28 45  1  0
 46 47  1  0
 46 48  1  0
 46 49  1  0
 49 50  1  0
 49 51  1  0
 49 52  1  0
 52 53  1  0
M  END
>  <r_exp_dg>  (23) 
-11.85

>  <AmberAM1BCCCache>  (23) 
gASVSgQAAAAAAABdlCiMFm51bXB5Ll9jb3JlLm11bHRpYXJyYXmUjAZzY2FsYXKUk5SMBW51bXB5lIwFZHR5cGWUk5SMAmY4lImIh5RSlChLA4wBPJROTk5K/////0r/////SwB0lGJDCOX0BcohrPi/lIaUUpRoA2gJQwgNnjiQik/4P5SGlFKUaANoCUMIDZ44kIpP+D+UhpRSlGgDaAlDCOX0BcohrPi/lIaUUpRoA2gJQwhhzGJ5s2wDwJSGlFKUaANoCUMIXdiBFAJ0E8CUhpRSlGgDaAlDCF00YWzAnSBAlIaUUpRoA2gJQwirTXTATIT7P5SGlFKUaANoCUMI5M8JeVjKJUCUhpRSlGgDaAlDCITT9J6u3wRAlIaUUpRoA2gJQwhXAtppJ9ITwJSGlFKUaANoCUMIg/zGsC8WsT+UhpRSlGgDaAlDCMt7pl4vmPw/lIaUUpRoA2gJQwitFeHFXIAAwJSGlFKUaANoCUMIcEnqcjuc7L+UhpRSlGgDaAlDCBe0T3ljfx1AlIaUUpRoA2gJQwglDNUy3oYYQJSGlFKUaANoCUMInx3oza9F47+UhpRSlGgDaAlDCLz8gQSI0dY/lIaUUpRoA2gJQwjWFDoyjvLwP5SGlFKUaANoCUMIRmIzn5Sv+L+UhpRSlGgDaAlDCBZUp5hrQPm/lIaUUpRoA2gJQwiQYmXeAgUFwJSGlFKUaANoCUMIa+2zUnTYIcCUhpRSlGgDaAlDCNKOs3roPR3AlIaUUpRoA2gJQwjUYdC/bvMTwJSGlFKUaANoCUMIsTlFw9wtI8CUhpRSlGgDaAlDCMaIgFb0cyPAlIaUUpRoA2gJQwgOroOdfMz9P5SGlFKUaANoCUMIkwR5hnh1AUCUhpRSlGgDaAlDCP7NKTU2cf8/lIaUUpRoA2gJQwivkWuQKu7+P5SGlFKUaANoCUMIGocY3y8N2j+UhpRSlGgDaAlDCDpr4/O4POY/lIaUUpRoA2gJQwg6a+PzuDzmP5SGlFKUaANoCUMIT9D+5guq4z+UhpRSlGgDaAlDCE/Q/uYLquM/lIaUUpRoA2gJQwhP0P7mC6rjP5SGlFKUaANoCUMIT9D+5guq4z+UhpRSlGgDaAlDCDpr4/O4POY/lIaUUpRoA2gJQwg6a+PzuDzmP5SGlFKUaANoCUMIxIU58R1n8T+UhpRSlGgDaAlDCF7DFNGo7uw/lIaUUpRoA2gJQwhewxTRqO7sP5SGlFKUaANoCUMINmS4PP64FECUhpRSlGgDaAlDCFMoNyZlFPi/lIaUUpRoA2gJQwgLrmy1sPLnP5SGlFKUaANoCUMIC65stbDy5z+UhpRSlGgDaAlDCPtsyV8jz/g/lIaUUpRoA2gJQwgYOXSLc1TeP5SGlFKUaANoCUMIGDl0i3NU3j+UhpRSlGgDaAlDCLoU0uuSIRzAlIaUUpRoA2gJQwj/O7xjb9MSQJSGlFKUZS4=

>  <experimental dG reference units>  (23) 
kcal/mol

>  <experimental dG reference field>  (23) 
r_exp_dg

>  <kJ/mol experimental dG>  (23) 
-49.5804

>  <kcal/mol experimental dG>  (23) 
-11.85

$$$$
2y
     RDKit          3D

 45 47  0  0  1  0  0  0  0  0999 V2000
   15.9289   10.6052   31.6558 C   0  0  0  0  0  0  0  0  0  0  0  0
   21.3330   12.5360   31.2560 C   0  0  0  0  0  0  0  0  0  0  0  0
   17.2148   11.1330   31.7492 C   0  0  0  0  0  0  0  0  0  0  0  0
   23.8140    8.4300   31.0230 C   0  0  0  0  0  0  0  0  0  0  0  0
   26.1033    8.1491   32.0015 C   0  0  0  0  0  0  0  0  0  0  0  0
   21.4260    9.7450   30.7760 C   0  0  0  0  0  0  0  0  0  0  0  0
   20.2000   10.4070   30.6460 C   0  0  0  0  0  0  0  0  0  0  0  0
   15.1498   10.8620   30.5315 C   0  0  0  0  0  0  0  0  0  0  0  0
   15.6437   11.6674   29.5099 C   0  0  0  0  0  0  0  0  0  0  0  0
   16.9252   12.2094   29.6024 C   0  0  0  0  0  0  0  0  0  0  0  0
   22.5820   10.4440   31.1400 C   0  0  0  0  0  0  0  0  0  0  0  0
   21.5200    8.3710   30.5390 C   0  0  0  0  0  0  0  0  0  0  0  0
   20.1110   11.7830   30.8770 C   0  0  0  0  0  0  0  0  0  0  0  0
   17.7268   11.9270   30.7096 C   0  0  0  0  0  0  0  0  0  0  0  0
   23.7824   12.5444   31.7919 C   0  0  0  0  0  0  0  0  0  0  0  0
   17.9623   10.8639   32.8440 F   0  0  0  0  0  0  0  0  0  0  0  0
   13.9217   10.3188   30.4187 F   0  0  0  0  0  0  0  0  0  0  0  0
   18.9657   12.5219   30.7794 O   0  0  0  0  0  0  0  0  0  0  0  0
   22.6990    7.7390   30.6640 N   0  0  0  0  0  0  0  0  0  0  0  0
   21.2570   13.7670   31.4640 O   0  0  0  0  0  0  0  0  0  0  0  0
   22.5560   11.8400   31.3820 N   0  0  0  0  0  0  0  0  0  0  0  0
   23.7460    9.7650   31.2550 N   0  0  0  0  0  0  0  0  0  0  0  0
   25.0169    7.7515   31.0953 N   0  0  0  0  0  0  0  0  0  0  0  0
   15.0292   11.8642   28.6456 H   0  0  0  0  0  0  0  0  0  0  0  0
   17.3033   12.8413   28.8114 H   0  0  0  0  0  0  0  0  0  0  0  0
   15.5471    9.9749   32.4444 H   0  0  0  0  0  0  0  0  0  0  0  0
   19.3169    9.8549   30.3581 H   0  0  0  0  0  0  0  0  0  0  0  0
   20.6583    7.7872   30.2460 H   0  0  0  0  0  0  0  0  0  0  0  0
   26.7466    7.2779   32.1357 H   0  0  0  0  0  0  0  0  0  0  0  0
   24.1771   12.1065   32.7091 H   0  0  0  0  0  0  0  0  0  0  0  0
   24.5445   12.4534   31.0177 H   0  0  0  0  0  0  0  0  0  0  0  0
   23.6286   13.6080   31.9796 H   0  0  0  0  0  0  0  0  0  0  0  0
   24.8829    6.7501   31.0061 H   0  0  0  0  0  0  0  0  0  0  0  0
   25.6742    8.3195   32.9878 H   0  0  0  0  0  0  0  0  0  0  0  0
   26.9695    9.3747   31.5943 C   0  0  0  0  0  0  0  0  0  0  0  0
   26.2797   10.5486   31.9304 O   0  0  0  0  0  0  0  0  0  0  0  0
   25.3516   10.3792   31.6579 H   0  0  0  0  0  0  0  0  0  0  0  0
   27.2316    9.4468   30.0840 C   0  0  0  0  0  0  0  0  0  0  0  0
   27.6800    8.5171   29.7434 H   0  0  0  0  0  0  0  0  0  0  0  0
   26.3140    9.5881   29.5114 H   0  0  0  0  0  0  0  0  0  0  0  0
   27.9087   10.2617   29.8251 H   0  0  0  0  0  0  0  0  0  0  0  0
   28.2965    9.3900   32.3653 C   0  0  0  0  0  0  0  0  0  0  0  0
   28.9005    8.5136   32.1278 H   0  0  0  0  0  0  0  0  0  0  0  0
   28.1312    9.3921   33.4433 H   0  0  0  0  0  0  0  0  0  0  0  0
   28.8928   10.2711   32.1240 H   0  0  0  0  0  0  0  0  0  0  0  0
  1  3  2  0
  1  8  1  0
  1 26  1  0
  2 13  1  0
  2 20  2  0
  2 21  1  0
  3 14  1  0
  3 16  1  0
  4 19  1  0
  4 22  2  0
  4 23  1  0
  5 23  1  0
  5 29  1  0
  5 34  1  0
  5 35  1  0
  6  7  1  0
  6 11  2  0
  6 12  1  0
  7 13  2  0
  7 27  1  0
  8  9  2  0
  8 17  1  0
  9 10  1  0
  9 24  1  0
 10 14  2  0
 10 25  1  0
 11 21  1  0
 11 22  1  0
 12 19  2  0
 12 28  1  0
 13 18  1  0
 14 18  1  0
 15 21  1  0
 15 30  1  0
 15 31  1  0
 15 32  1  0
 23 33  1  0
 35 36  1  0
 35 38  1  0
 35 42  1  0
 36 37  1  0
 38 39  1  0
 38 40  1  0
 38 41  1  0
 42 43  1  0
 42 44  1  0
 42 45  1  0
M  END
>  <r_exp_dg>  (24) 
-9.78

>  <AmberAM1BCCCache>  (24) 
gASVsgMAAAAAAABdlCiMFm51bXB5Ll9jb3JlLm11bHRpYXJyYXmUjAZzY2FsYXKUk5SMBW51bXB5lIwFZHR5cGWUk5SMAmY4lImIh5RSlChLA4wBPJROTk5K/////0r/////SwB0lGJDCBqedIwY7gLAlIaUUpRoA2gJQwhvqGw5UJUgQJSGlFKUaANoCUMIsMADOi6c+z+UhpRSlGgDaAlDCAIuK6mjuCVAlIaUUpRoA2gJQwi/nl6rmnYCQJSGlFKUaANoCUMI/6SFADjSE8CUhpRSlGgDaAlDCGK6uAOXdas/lIaUUpRoA2gJQwjHx0m9wlP7P5SGlFKUaANoCUMIJ9Gn3V/r/7+UhpRSlGgDaAlDCLZGZd9CBfG/lIaUUpRoA2gJQwhScJLZ+VsdQJSGlFKUaANoCUMI5eg4kdaMGECUhpRSlGgDaAlDCDs1B68QLuO/lIaUUpRoA2gJQwgvl6vlOAHfP5SGlFKUaANoCUMINiCtpwRs6j+UhpRSlGgDaAlDCHH9LyzcBvi/lIaUUpRoA2gJQwhX3JPH0Vj5v5SGlFKUaANoCUMIuIldOZ7DBMCUhpRSlGgDaAlDCAr/gSN41SHAlIaUUpRoA2gJQwiLJsN09/IcwJSGlFKUaANoCUMIlDoitkH7E8CUhpRSlGgDaAlDCMq9KfzvKCPAlIaUUpRoA2gJQwgVgqJe138jwJSGlFKUaANoCUMIKihZmvKb/T+UhpRSlGgDaAlDCMxkBOLFsABAlIaUUpRoA2gJQwg++/Jam2b/P5SGlFKUaANoCUMIVw/kzmqZ/j+UhpRSlGgDaAlDCNsWmCCq6dk/lIaUUpRoA2gJQwisvgVOKUXsP5SGlFKUaANoCUMIp0i/azhH6D+UhpRSlGgDaAlDCKdIv2s4R+g/lIaUUpRoA2gJQwinSL9rOEfoP5SGlFKUaANoCUMIYyuXOZbgFECUhpRSlGgDaAlDCKy+BU4pRew/lIaUUpRoA2gJQwggeWkohlb4P5SGlFKUaANoCUMINPKnOR75G8CUhpRSlGgDaAlDCCxlFfpSFRNAlIaUUpRoA2gJQwjNXfZvyTn2v5SGlFKUaANoCUMI/U4PkCcq4j+UhpRSlGgDaAlDCP1OD5AnKuI/lIaUUpRoA2gJQwj9Tg+QJyriP5SGlFKUaANoCUMIzV32b8k59r+UhpRSlGgDaAlDCP1OD5AnKuI/lIaUUpRoA2gJQwj9Tg+QJyriP5SGlFKUaANoCUMI/U4PkCcq4j+UhpRSlGUu

>  <experimental dG reference units>  (24) 
kcal/mol

>  <experimental dG reference field>  (24) 
r_exp_dg

>  <kJ/mol experimental dG>  (24) 
-40.91952

>  <kcal/mol experimental dG>  (24) 
-9.78

$$$$
2v
     RDKit          3D

 35 37  0  0  1  0  0  0  0  0999 V2000
   15.9280   10.6061   31.6541 C   0  0  0  0  0  0  0  0  0  0  0  0
   21.3330   12.5360   31.2560 C   0  0  0  0  0  0  0  0  0  0  0  0
   17.2140   11.1336   31.7480 C   0  0  0  0  0  0  0  0  0  0  0  0
   23.8140    8.4300   31.0230 C   0  0  0  0  0  0  0  0  0  0  0  0
   26.2462    8.4381   31.5427 C   0  0  0  0  0  0  0  0  0  0  0  0
   21.4260    9.7450   30.7760 C   0  0  0  0  0  0  0  0  0  0  0  0
   20.2000   10.4070   30.6460 C   0  0  0  0  0  0  0  0  0  0  0  0
   15.1496   10.8626   30.5292 C   0  0  0  0  0  0  0  0  0  0  0  0
   15.6444   11.6672   29.5075 C   0  0  0  0  0  0  0  0  0  0  0  0
   16.9259   12.2090   29.6005 C   0  0  0  0  0  0  0  0  0  0  0  0
   22.5820   10.4440   31.1400 C   0  0  0  0  0  0  0  0  0  0  0  0
   21.5200    8.3710   30.5390 C   0  0  0  0  0  0  0  0  0  0  0  0
   20.1110   11.7830   30.8770 C   0  0  0  0  0  0  0  0  0  0  0  0
   17.7268   11.9270   30.7084 C   0  0  0  0  0  0  0  0  0  0  0  0
   23.7882   12.5350   31.7928 C   0  0  0  0  0  0  0  0  0  0  0  0
   17.9607   10.8650   32.8435 F   0  0  0  0  0  0  0  0  0  0  0  0
   13.9213   10.3199   30.4161 F   0  0  0  0  0  0  0  0  0  0  0  0
   18.9658   12.5219   30.7788 O   0  0  0  0  0  0  0  0  0  0  0  0
   22.6990    7.7390   30.6640 N   0  0  0  0  0  0  0  0  0  0  0  0
   21.2570   13.7670   31.4640 O   0  0  0  0  0  0  0  0  0  0  0  0
   22.5560   11.8400   31.3820 N   0  0  0  0  0  0  0  0  0  0  0  0
   23.7460    9.7650   31.2550 N   0  0  0  0  0  0  0  0  0  0  0  0
   25.0162    7.7565   31.1516 N   0  0  0  0  0  0  0  0  0  0  0  0
   15.0303   11.8638   28.6428 H   0  0  0  0  0  0  0  0  0  0  0  0
   17.3047   12.8404   28.8094 H   0  0  0  0  0  0  0  0  0  0  0  0
   15.5456    9.9764   32.4429 H   0  0  0  0  0  0  0  0  0  0  0  0
   19.3169    9.8549   30.3580 H   0  0  0  0  0  0  0  0  0  0  0  0
   20.6584    7.7871   30.2462 H   0  0  0  0  0  0  0  0  0  0  0  0
   26.1582    8.8536   32.5475 H   0  0  0  0  0  0  0  0  0  0  0  0
   24.1807   12.0892   32.7072 H   0  0  0  0  0  0  0  0  0  0  0  0
   24.5501   12.4342   31.0196 H   0  0  0  0  0  0  0  0  0  0  0  0
   23.6417   13.5995   31.9814 H   0  0  0  0  0  0  0  0  0  0  0  0
   25.0278    6.7519   30.9966 H   0  0  0  0  0  0  0  0  0  0  0  0
   26.4772    9.2532   30.8550 H   0  0  0  0  0  0  0  0  0  0  0  0
   27.0852    7.7410   31.5349 H   0  0  0  0  0  0  0  0  0  0  0  0
  1  3  2  0
  1  8  1  0
  1 26  1  0
  2 13  1  0
  2 20  2  0
  2 21  1  0
  3 14  1  0
  3 16  1  0
  4 19  1  0
  4 22  2  0
  4 23  1  0
  5 23  1  0
  5 29  1  0
  5 34  1  0
  5 35  1  0
  6  7  1  0
  6 11  2  0
  6 12  1  0
  7 13  2  0
  7 27  1  0
  8  9  2  0
  8 17  1  0
  9 10  1  0
  9 24  1  0
 10 14  2  0
 10 25  1  0
 11 21  1  0
 11 22  1  0
 12 19  2  0
 12 28  1  0
 13 18  1  0
 14 18  1  0
 15 21  1  0
 15 30  1  0
 15 31  1  0
 15 32  1  0
 23 33  1  0
M  END
>  <r_exp_dg>  (25) 
-8.97

>  <AmberAM1BCCCache>  (25) 
gASV9AIAAAAAAABdlCiMFm51bXB5Ll9jb3JlLm11bHRpYXJyYXmUjAZzY2FsYXKUk5SMBW51bXB5lIwFZHR5cGWUk5SMAmY4lImIh5RSlChLA4wBPJROTk5K/////0r/////SwB0lGJDCImf7HD4hAPAlIaUUpRoA2gJQwgNY1Jj5KIgQJSGlFKUaANoCUMIoaLceQqE+z+UhpRSlGgDaAlDCORHZAXDzSVAlIaUUpRoA2gJQwg5WvPGYocDQJSGlFKUaANoCUMIjuncuW32E8CUhpRSlGgDaAlDCE6suXTghLQ/lIaUUpRoA2gJQwj9ikjEcHX8P5SGlFKUaANoCUMIMess6X2AAMCUhpRSlGgDaAlDCARVz1SLquy/lIaUUpRoA2gJQwjOqIjp8FUdQJSGlFKUaANoCUMI1x2MXwOrGECUhpRSlGgDaAlDCFRX/03iZ+S/lIaUUpRoA2gJQwiq0qfiBnbXP5SGlFKUaANoCUMIBN0YpCiE6j+UhpRSlGgDaAlDCFANy+XWr/i/lIaUUpRoA2gJQwgh/z7frUD5v5SGlFKUaANoCUMI1hIMrAkMBcCUhpRSlGgDaAlDCBLeAkTECCLAlIaUUpRoA2gJQwjH5aXLfU0dwJSGlFKUaANoCUMIdQTu0SbpE8CUhpRSlGgDaAlDCD/FjXg8BiPAlIaUUpRoA2gJQwgNOwJP//AjwJSGlFKUaANoCUMIAwPsVjrM/T+UhpRSlGgDaAlDCE+/PWIIigFAlIaUUpRoA2gJQwgw3cuad07/P5SGlFKUaANoCUMIX+tXoaC9/j+UhpRSlGgDaAlDCOyZd8hiudk/lIaUUpRoA2gJQwi3vgzxnn7iP5SGlFKUaANoCUMIPOhNJ90G6D+UhpRSlGgDaAlDCDzoTSfdBug/lIaUUpRoA2gJQwg86E0n3QboP5SGlFKUaANoCUMIpNizeTdNFUCUhpRSlGgDaAlDCLe+DPGefuI/lIaUUpRoA2gJQwi3vgzxnn7iP5SGlFKUZS4=

>  <experimental dG reference units>  (25) 
kcal/mol

>  <experimental dG reference field>  (25) 
r_exp_dg

>  <kJ/mol experimental dG>  (25) 
-37.530480000000004

>  <kcal/mol experimental dG>  (25) 
-8.97

$$$$
3fmh
     RDKit          3D

 46 49  0  0  1  0  0  0  0  0999 V2000
   15.9287   10.6057   31.6558 C   0  0  0  0  0  0  0  0  0  0  0  0
   21.3330   12.5360   31.2560 C   0  0  0  0  0  0  0  0  0  0  0  0
   17.2146   11.1334   31.7492 C   0  0  0  0  0  0  0  0  0  0  0  0
   23.8140    8.4300   31.0230 C   0  0  0  0  0  0  0  0  0  0  0  0
   26.2698    8.4424   31.3806 C   0  0  2  0  0  0  0  0  0  0  0  0
   21.4260    9.7450   30.7760 C   0  0  0  0  0  0  0  0  0  0  0  0
   20.2000   10.4070   30.6460 C   0  0  0  0  0  0  0  0  0  0  0  0
   15.1497   10.8621   30.5314 C   0  0  0  0  0  0  0  0  0  0  0  0
   15.6437   11.6672   29.5096 C   0  0  0  0  0  0  0  0  0  0  0  0
   16.9252   12.2092   29.6020 C   0  0  0  0  0  0  0  0  0  0  0  0
   22.5820   10.4440   31.1400 C   0  0  0  0  0  0  0  0  0  0  0  0
   21.5200    8.3710   30.5390 C   0  0  0  0  0  0  0  0  0  0  0  0
   20.1110   11.7830   30.8770 C   0  0  0  0  0  0  0  0  0  0  0  0
   17.7267   11.9270   30.7094 C   0  0  0  0  0  0  0  0  0  0  0  0
   23.7891   12.5346   31.7908 C   0  0  0  0  0  0  0  0  0  0  0  0
   17.9619   10.8648   32.8442 F   0  0  0  0  0  0  0  0  0  0  0  0
   13.9215   10.3191   30.4186 F   0  0  0  0  0  0  0  0  0  0  0  0
   18.9657   12.5219   30.7792 O   0  0  0  0  0  0  0  0  0  0  0  0
   22.6990    7.7390   30.6640 N   0  0  0  0  0  0  0  0  0  0  0  0
   21.2570   13.7670   31.4640 O   0  0  0  0  0  0  0  0  0  0  0  0
   22.5560   11.8400   31.3820 N   0  0  0  0  0  0  0  0  0  0  0  0
   23.7460    9.7650   31.2550 N   0  0  0  0  0  0  0  0  0  0  0  0
   24.9975    7.7469   31.2382 N   0  0  0  0  0  0  0  0  0  0  0  0
   15.0292   11.8639   28.6452 H   0  0  0  0  0  0  0  0  0  0  0  0
   17.3034   12.8409   28.8109 H   0  0  0  0  0  0  0  0  0  0  0  0
   15.5468    9.9757   32.4447 H   0  0  0  0  0  0  0  0  0  0  0  0
   19.3168    9.8551   30.3580 H   0  0  0  0  0  0  0  0  0  0  0  0
   20.6585    7.7869   30.2463 H   0  0  0  0  0  0  0  0  0  0  0  0
   26.0952    9.3924   31.8978 H   0  0  0  0  0  0  0  0  0  0  0  0
   24.1813   12.0905   32.7061 H   0  0  0  0  0  0  0  0  0  0  0  0
   24.5507   12.4309   31.0176 H   0  0  0  0  0  0  0  0  0  0  0  0
   23.6437   13.5997   31.9767 H   0  0  0  0  0  0  0  0  0  0  0  0
   25.0110    6.7645   30.9827 H   0  0  0  0  0  0  0  0  0  0  0  0
   26.8359    8.7612   29.9902 C   0  0  0  0  0  0  0  0  0  0  0  0
   26.9747    7.8470   29.4144 H   0  0  0  0  0  0  0  0  0  0  0  0
   26.1605    9.4036   29.4239 H   0  0  0  0  0  0  0  0  0  0  0  0
   27.7957    9.2754   30.0452 H   0  0  0  0  0  0  0  0  0  0  0  0
   27.2382    7.6058   32.2397 C   0  0  0  0  0  0  0  0  0  0  0  0
   27.5492    6.7054   31.7114 H   0  0  0  0  0  0  0  0  0  0  0  0
   26.7636    7.2854   33.1664 H   0  0  0  0  0  0  0  0  0  0  0  0
   28.4275    8.3582   32.5993 N   0  0  0  0  0  0  0  0  0  0  0  0
   29.6222    8.1371   32.0375 N   0  0  0  0  0  0  0  0  0  0  0  0
   30.3538    9.0622   32.6188 C   0  0  0  0  0  0  0  0  0  0  0  0
   29.7137    9.8211   33.4924 N   0  0  0  0  0  0  0  0  0  0  0  0
   28.4105    9.3628   33.4812 N   0  0  0  0  0  0  0  0  0  0  0  0
   31.4071    9.1955   32.3955 H   0  0  0  0  0  0  0  0  0  0  0  0
  1  3  2  0
  1  8  1  0
  1 26  1  0
  2 13  1  0
  2 20  2  0
  2 21  1  0
  3 14  1  0
  3 16  1  0
  4 19  1  0
  4 22  2  0
  4 23  1  0
  5 23  1  0
  5 29  1  1
  5 34  1  0
  5 38  1  0
  6  7  1  0
  6 11  2  0
  6 12  1  0
  7 13  2  0
  7 27  1  0
  8  9  2  0
  8 17  1  0
  9 10  1  0
  9 24  1  0
 10 14  2  0
 10 25  1  0
 11 21  1  0
 11 22  1  0
 12 19  2  0
 12 28  1  0
 13 18  1  0
 14 18  1  0
 15 21  1  0
 15 30  1  0
 15 31  1  0
 15 32  1  0
 23 33  1  0
 34 35  1  0
 34 36  1  0
 34 37  1  0
 38 39  1  0
 38 40  1  0
 38 41  1  0
 41 42  1  0
 41 45  1  0
 42 43  2  0
 43 44  1  0
 43 46  1  0
 44 45  2  0
M  END
>  <r_exp_dg>  (26) 
-10.83

>  <AmberAM1BCCCache>  (26) 
gASVxQMAAAAAAABdlCiMFm51bXB5Ll9jb3JlLm11bHRpYXJyYXmUjAZzY2FsYXKUk5SMBW51bXB5lIwFZHR5cGWUk5SMAmY4lImIh5RSlChLA4wBPJROTk5K/////0r/////SwB0lGJDCBcl2qtdewLAlIaUUpRoA2gJQwgeC5/Du4QgQJSGlFKUaANoCUMIh74C1vAI/D+UhpRSlGgDaAlDCIFBaOLCnyVAlIaUUpRoA2gJQwi7Af86KkICQJSGlFKUaANoCUMIfMwPGh5wE8CUhpRSlGgDaAlDCO/XC9IC3oa/lIaUUpRoA2gJQwj94WBm1576P5SGlFKUaANoCUMIgOE0SMbt/r+UhpRSlGgDaAlDCJP/5/bWhPO/lIaUUpRoA2gJQwhl9X5o1T0dQJSGlFKUaANoCUMIDcyXPE+CGECUhpRSlGgDaAlDCDFeSB1g3uC/lIaUUpRoA2gJQwjmkGW8WYXiP5SGlFKUaANoCUMIRzjD7Nsj6j+UhpRSlGgDaAlDCBuGhgi3V/e/lIaUUpRoA2gJQwijVX2HlUb5v5SGlFKUaANoCUMIZItO9jOHBMCUhpRSlGgDaAlDCGsQhQSPvCHAlIaUUpRoA2gJQwjNzx6vwn4cwJSGlFKUaANoCUMIDbnYaDD1E8CUhpRSlGgDaAlDCInR7gjj9yLAlIaUUpRoA2gJQwg9Y4ubMWkjwJSGlFKUaANoCUMIpTBB+xOc/T+UhpRSlGgDaAlDCND9dU4Wo/8/lIaUUpRoA2gJQwj//lZkBJf/P5SGlFKUaANoCUMIFxNI2NPJ/j+UhpRSlGgDaAlDCH8JEDn8zNs/lIaUUpRoA2gJQwhpPHmj2/j0P5SGlFKUaANoCUMIKFCHfgqo6D+UhpRSlGgDaAlDCChQh34KqOg/lIaUUpRoA2gJQwgoUId+CqjoP5SGlFKUaANoCUMIQNsoUE5UFECUhpRSlGgDaAlDCKsjJHiYNPi/lIaUUpRoA2gJQwjlDzdk7djjP5SGlFKUaANoCUMI5Q83ZO3Y4z+UhpRSlGgDaAlDCOUPN2Tt2OM/lIaUUpRoA2gJQwjZsGmkuFTlP5SGlFKUaANoCUMICTJtJOVH8D+UhpRSlGgDaAlDCAkybSTlR/A/lIaUUpRoA2gJQwildrjaqTACQJSGlFKUaANoCUMIk255BpntFsCUhpRSlGgDaAlDCPNRWF1UOxZAlIaUUpRoA2gJQwheZ3zlNVgRwJSGlFKUaANoCUMIjBKKhz3u+r+UhpRSlGgDaAlDCAkQFomXnfA/lIaUUpRlLg==

>  <experimental dG reference units>  (26) 
kcal/mol

>  <experimental dG reference field>  (26) 
r_exp_dg

>  <kJ/mol experimental dG>  (26) 
-45.31272

>  <kcal/mol experimental dG>  (26) 
-10.83

$$$$
3flz
     RDKit          3D

 46 49  0  0  1  0  0  0  0  0999 V2000
   26.9888    8.8864   30.3684 C   0  0  0  0  0  0  0  0  0  0  0  0
   28.3354    9.5233   30.7570 C   0  0  0  0  0  0  0  0  0  0  0  0
   28.4583    8.2167   32.7757 C   0  0  0  0  0  0  0  0  0  0  0  0
   27.1105    7.5371   32.4770 C   0  0  0  0  0  0  0  0  0  0  0  0
   16.0103   10.6028   31.8429 C   0  0  0  0  0  0  0  0  0  0  0  0
   29.0938    8.6108   31.5560 O   0  0  0  0  0  0  0  0  0  0  0  0
   21.3330   12.5360   31.2560 C   0  0  0  0  0  0  0  0  0  0  0  0
   17.2876   11.1548   31.8530 C   0  0  0  0  0  0  0  0  0  0  0  0
   23.8140    8.4300   31.0230 C   0  0  0  0  0  0  0  0  0  0  0  0
   26.2272    8.4610   31.6302 C   0  0  0  0  0  0  0  0  0  0  0  0
   21.4260    9.7450   30.7760 C   0  0  0  0  0  0  0  0  0  0  0  0
   20.2000   10.4070   30.6460 C   0  0  0  0  0  0  0  0  0  0  0  0
   15.1709   10.8224   30.7523 C   0  0  0  0  0  0  0  0  0  0  0  0
   15.5983   11.5929   29.6725 C   0  0  0  0  0  0  0  0  0  0  0  0
   16.8765   12.1468   29.6850 C   0  0  0  0  0  0  0  0  0  0  0  0
   22.5820   10.4440   31.1400 C   0  0  0  0  0  0  0  0  0  0  0  0
   21.5200    8.3710   30.5390 C   0  0  0  0  0  0  0  0  0  0  0  0
   20.1110   11.7830   30.8770 C   0  0  0  0  0  0  0  0  0  0  0  0
   17.7247   11.9184   30.7676 C   0  0  0  0  0  0  0  0  0  0  0  0
   23.7893   12.5344   31.7905 C   0  0  0  0  0  0  0  0  0  0  0  0
   18.9626   12.5179   30.7766 O   0  0  0  0  0  0  0  0  0  0  0  0
   22.6990    7.7390   30.6640 N   0  0  0  0  0  0  0  0  0  0  0  0
   21.2570   13.7670   31.4640 O   0  0  0  0  0  0  0  0  0  0  0  0
   22.5560   11.8400   31.3820 N   0  0  0  0  0  0  0  0  0  0  0  0
   23.7460    9.7650   31.2550 N   0  0  0  0  0  0  0  0  0  0  0  0
   25.0062    7.7573   31.2484 N   0  0  0  0  0  0  0  0  0  0  0  0
   14.9446   11.7592   28.8287 H   0  0  0  0  0  0  0  0  0  0  0  0
   17.2133   12.7522   28.8560 H   0  0  0  0  0  0  0  0  0  0  0  0
   15.6810    9.9944   32.6725 H   0  0  0  0  0  0  0  0  0  0  0  0
   19.3144    9.8583   30.3563 H   0  0  0  0  0  0  0  0  0  0  0  0
   20.6580    7.7876   30.2466 H   0  0  0  0  0  0  0  0  0  0  0  0
   27.1672    8.0214   29.7282 H   0  0  0  0  0  0  0  0  0  0  0  0
   26.3997    9.5947   29.7845 H   0  0  0  0  0  0  0  0  0  0  0  0
   28.1808   10.4591   31.2983 H   0  0  0  0  0  0  0  0  0  0  0  0
   28.9079    9.7790   29.8658 H   0  0  0  0  0  0  0  0  0  0  0  0
   29.1146    7.5292   33.3111 H   0  0  0  0  0  0  0  0  0  0  0  0
   28.3210    9.0839   33.4254 H   0  0  0  0  0  0  0  0  0  0  0  0
   26.6084    7.2750   33.4090 H   0  0  0  0  0  0  0  0  0  0  0  0
   27.3068    6.6031   31.9497 H   0  0  0  0  0  0  0  0  0  0  0  0
   25.9776    9.3507   32.2161 H   0  0  0  0  0  0  0  0  0  0  0  0
   24.5508   12.4298   31.0175 H   0  0  0  0  0  0  0  0  0  0  0  0
   24.1811   12.0904   32.7061 H   0  0  0  0  0  0  0  0  0  0  0  0
   23.6443   13.5996   31.9758 H   0  0  0  0  0  0  0  0  0  0  0  0
   25.0593    6.7705   31.0176 H   0  0  0  0  0  0  0  0  0  0  0  0
   17.9402   10.9878   32.6971 H   0  0  0  0  0  0  0  0  0  0  0  0
   14.1831   10.3832   30.7419 H   0  0  0  0  0  0  0  0  0  0  0  0
  1  2  1  0
  1 10  1  0
  1 32  1  0
  1 33  1  0
  2  6  1  0
  2 34  1  0
  2 35  1  0
  3  4  1  0
  3  6  1  0
  3 36  1  0
  3 37  1  0
  4 10  1  0
  4 38  1  0
  4 39  1  0
  5  8  2  0
  5 13  1  0
  5 29  1  0
  7 18  1  0
  7 23  2  0
  7 24  1  0
  8 19  1  0
  8 45  1  0
  9 22  1  0
  9 25  2  0
  9 26  1  0
 10 26  1  0
 10 40  1  0
 11 12  1  0
 11 16  2  0
 11 17  1  0
 12 18  2  0
 12 30  1  0
 13 14  2  0
 13 46  1  0
 14 15  1  0
 14 27  1  0
 15 19  2  0
 15 28  1  0
 16 24  1  0
 16 25  1  0
 17 22  2  0
 17 31  1  0
 18 21  1  0
 19 21  1  0
 20 24  1  0
 20 41  1  0
 20 42  1  0
 20 43  1  0
 26 44  1  0
M  END
>  <r_exp_dg>  (27) 
-9.49

>  <AmberAM1BCCCache>  (27) 
gASVxQMAAAAAAABdlCiMFm51bXB5Ll9jb3JlLm11bHRpYXJyYXmUjAZzY2FsYXKUk5SMBW51bXB5lIwFZHR5cGWUk5SMAmY4lImIh5RSlChLA4wBPJROTk5K/////0r/////SwB0lGJDCIxivVfcuvi/lIaUUpRoA2gJQwhpm+yrZlz4P5SGlFKUaANoCUMIaZvsq2Zc+D+UhpRSlGgDaAlDCIxivVfcuvi/lIaUUpRoA2gJQwj8hdJOgDvzv5SGlFKUaANoCUMIIxgsfdh5E8CUhpRSlGgDaAlDCGN86z7HeCBAlIaUUpRoA2gJQwjqZx+gb6T+v5SGlFKUaANoCUMIwB+kRbyyJUCUhpRSlGgDaAlDCLfDj85QvwRAlIaUUpRoA2gJQwjjw1Xz4sUTwJSGlFKUaANoCUMItAhYqVMisb+UhpRSlGgDaAlDCEiEN63Bgv2/lIaUUpRoA2gJQwj8hdJOgDvzv5SGlFKUaANoCUMI6mcfoG+k/r+UhpRSlGgDaAlDCDTTkwc0Vh1AlIaUUpRoA2gJQwgmTvzq7G4YQJSGlFKUaANoCUMIqwclMXWc3r+UhpRSlGgDaAlDCIAAN0cMX/Y/lIaUUpRoA2gJQwgtMHKUQYbqP5SGlFKUaANoCUMICrFKf0iQBcCUhpRSlGgDaAlDCALNkAFk3iHAlIaUUpRoA2gJQwjkW0YHTgEcwJSGlFKUaANoCUMIvlRuUTQfFMCUhpRSlGgDaAlDCGPtTThDISPAlIaUUpRoA2gJQwjbsqewGGwjwJSGlFKUaANoCUMIzyL9WkcW+T+UhpRSlGgDaAlDCOLo6yq1Zfs/lIaUUpRoA2gJQwjPIv1aRxb5P5SGlFKUaANoCUMImKwYz0bN/T+UhpRSlGgDaAlDCJ1cQrbmm9g/lIaUUpRoA2gJQwgLbZGuBQ7mP5SGlFKUaANoCUMIC22RrgUO5j+UhpRSlGgDaAlDCOCsB0w+guM/lIaUUpRoA2gJQwjgrAdMPoLjP5SGlFKUaANoCUMI4KwHTD6C4z+UhpRSlGgDaAlDCOCsB0w+guM/lIaUUpRoA2gJQwgLbZGuBQ7mP5SGlFKUaANoCUMIC22RrgUO5j+UhpRSlGgDaAlDCDQSHfa8lPE/lIaUUpRoA2gJQwi1X8rbCRnoP5SGlFKUaANoCUMItV/K2wkZ6D+UhpRSlGgDaAlDCLVfytsJGeg/lIaUUpRoA2gJQwhdld7qZJIUQJSGlFKUaANoCUMI4ujrKrVl+z+UhpRSlGgDaAlDCM8i/VpHFvk/lIaUUpRlLg==

>  <experimental dG reference units>  (27) 
kcal/mol

>  <experimental dG reference field>  (27) 
r_exp_dg

>  <kJ/mol experimental dG>  (27) 
-39.706160000000004

>  <kcal/mol experimental dG>  (27) 
-9.49

$$$$
2z
     RDKit          3D

 45 47  0  0  1  0  0  0  0  0999 V2000
   15.9280   10.6057   31.6547 C   0  0  0  0  0  0  0  0  0  0  0  0
   21.3330   12.5360   31.2560 C   0  0  0  0  0  0  0  0  0  0  0  0
   17.2140   11.1332   31.7486 C   0  0  0  0  0  0  0  0  0  0  0  0
   23.8140    8.4300   31.0230 C   0  0  0  0  0  0  0  0  0  0  0  0
   26.3628    8.3351   31.2903 C   0  0  0  0  0  0  0  0  0  0  0  0
   21.4260    9.7450   30.7760 C   0  0  0  0  0  0  0  0  0  0  0  0
   20.2000   10.4070   30.6460 C   0  0  0  0  0  0  0  0  0  0  0  0
   15.1495   10.8623   30.5301 C   0  0  0  0  0  0  0  0  0  0  0  0
   15.6440   11.6673   29.5085 C   0  0  0  0  0  0  0  0  0  0  0  0
   16.9256   12.2091   29.6014 C   0  0  0  0  0  0  0  0  0  0  0  0
   22.5820   10.4440   31.1400 C   0  0  0  0  0  0  0  0  0  0  0  0
   21.5200    8.3710   30.5390 C   0  0  0  0  0  0  0  0  0  0  0  0
   20.1110   11.7830   30.8770 C   0  0  0  0  0  0  0  0  0  0  0  0
   17.7267   11.9268   30.7091 C   0  0  0  0  0  0  0  0  0  0  0  0
   23.7885   12.5355   31.7903 C   0  0  0  0  0  0  0  0  0  0  0  0
   17.9606   10.8645   32.8441 F   0  0  0  0  0  0  0  0  0  0  0  0
   13.9212   10.3196   30.4169 F   0  0  0  0  0  0  0  0  0  0  0  0
   18.9656   12.5218   30.7793 O   0  0  0  0  0  0  0  0  0  0  0  0
   22.6990    7.7390   30.6640 N   0  0  0  0  0  0  0  0  0  0  0  0
   21.2570   13.7670   31.4640 O   0  0  0  0  0  0  0  0  0  0  0  0
   22.5560   11.8400   31.3820 N   0  0  0  0  0  0  0  0  0  0  0  0
   23.7460    9.7650   31.2550 N   0  0  0  0  0  0  0  0  0  0  0  0
   24.9994    7.7583   31.3025 N   0  0  0  0  0  0  0  0  0  0  0  0
   15.0298   11.8641   28.6439 H   0  0  0  0  0  0  0  0  0  0  0  0
   17.3042   12.8407   28.8104 H   0  0  0  0  0  0  0  0  0  0  0  0
   15.5458    9.9758   32.4435 H   0  0  0  0  0  0  0  0  0  0  0  0
   19.3169    9.8548   30.3583 H   0  0  0  0  0  0  0  0  0  0  0  0
   20.6585    7.7869   30.2466 H   0  0  0  0  0  0  0  0  0  0  0  0
   24.5369   12.4620   31.0012 H   0  0  0  0  0  0  0  0  0  0  0  0
   23.6356   13.5930   32.0099 H   0  0  0  0  0  0  0  0  0  0  0  0
   24.2012   12.0692   32.6855 H   0  0  0  0  0  0  0  0  0  0  0  0
   24.9628    6.7705   31.0782 H   0  0  0  0  0  0  0  0  0  0  0  0
   27.3434    7.4063   32.0772 C   0  0  0  0  0  0  0  0  0  0  0  0
   27.4801    6.4639   31.5562 H   0  0  0  0  0  0  0  0  0  0  0  0
   28.3413    7.8433   32.1454 H   0  0  0  0  0  0  0  0  0  0  0  0
   26.8777    7.1085   33.3872 O   0  0  0  0  0  0  0  0  0  0  0  0
   25.9359    6.9101   33.2843 H   0  0  0  0  0  0  0  0  0  0  0  0
   26.8062    8.4295   29.8266 C   0  0  0  0  0  0  0  0  0  0  0  0
   27.8143    8.8348   29.7478 H   0  0  0  0  0  0  0  0  0  0  0  0
   26.1514    9.0795   29.2444 H   0  0  0  0  0  0  0  0  0  0  0  0
   26.7943    7.4507   29.3480 H   0  0  0  0  0  0  0  0  0  0  0  0
   26.5147    9.7557   31.8953 C   0  0  0  0  0  0  0  0  0  0  0  0
   26.1075   10.5344   31.2518 H   0  0  0  0  0  0  0  0  0  0  0  0
   26.0262    9.8328   32.8605 H   0  0  0  0  0  0  0  0  0  0  0  0
   27.5609   10.0233   32.0453 H   0  0  0  0  0  0  0  0  0  0  0  0
  1  3  2  0
  1  8  1  0
  1 26  1  0
  2 13  1  0
  2 20  2  0
  2 21  1  0
  3 14  1  0
  3 16  1  0
  4 19  1  0
  4 22  2  0
  4 23  1  0
  5 23  1  0
  5 33  1  0
  5 38  1  0
  5 42  1  0
  6  7  1  0
  6 11  2  0
  6 12  1  0
  7 13  2  0
  7 27  1  0
  8  9  2  0
  8 17  1  0
  9 10  1  0
  9 24  1  0
 10 14  2  0
 10 25  1  0
 11 21  1  0
 11 22  1  0
 12 19  2  0
 12 28  1  0
 13 18  1  0
 14 18  1  0
 15 21  1  0
 15 29  1  0
 15 30  1  0
 15 31  1  0
 23 32  1  0
 33 34  1  0
 33 35  1  0
 33 36  1  0
 36 37  1  0
 38 39  1  0
 38 40  1  0
 38 41  1  0
 42 43  1  0
 42 44  1  0
 42 45  1  0
M  END
>  <r_exp_dg>  (28) 
-10.36

>  <AmberAM1BCCCache>  (28) 
gASVsgMAAAAAAABdlCiMFm51bXB5Ll9jb3JlLm11bHRpYXJyYXmUjAZzY2FsYXKUk5SMBW51bXB5lIwFZHR5cGWUk5SMAmY4lImIh5RSlChLA4wBPJROTk5K/////0r/////SwB0lGJDCDal7mfGhQPAlIaUUpRoA2gJQwih4ZHlsKIgQJSGlFKUaANoCUMIpZmat0pq+z+UhpRSlGgDaAlDCCZBLyXgAyZAlIaUUpRoA2gJQwigvNuH8YoHQJSGlFKUaANoCUMIk+0+y8LqE8CUhpRSlGgDaAlDCNDQWNhe7bU/lIaUUpRoA2gJQwgAggYCsVv8P5SGlFKUaANoCUMI3vAu4EuBAMCUhpRSlGgDaAlDCLpr1zDDrey/lIaUUpRoA2gJQwiOJvj4gE8dQJSGlFKUaANoCUMIXR3Nj3iSGECUhpRSlGgDaAlDCMRyi4HSOuS/lIaUUpRoA2gJQwhUkofMtTDYP5SGlFKUaANoCUMIlMGMcDix6j+UhpRSlGgDaAlDCKkYz9Nysfi/lIaUUpRoA2gJQwh6CkPNSUL5v5SGlFKUaANoCUMIgxgOo9cMBcCUhpRSlGgDaAlDCEPhlOLc9iHAlIaUUpRoA2gJQwgHaDa87VMdwJSGlFKUaANoCUMIHQaOt5/1E8CUhpRSlGgDaAlDCAEEFEWYISPAlIaUUpRoA2gJQwh+Ab+p5r0jwJSGlFKUaANoCUMIqvfnaJ7K/T+UhpRSlGgDaAlDCKK5O2s6iQFAlIaUUpRoA2gJQwjW0ces20z/P5SGlFKUaANoCUMIBuBTswS8/j+UhpRSlGgDaAlDCPV1b79jUtk/lIaUUpRoA2gJQwjX9WgPuRPoP5SGlFKUaANoCUMI1/VoD7kT6D+UhpRSlGgDaAlDCNf1aA+5E+g/lIaUUpRoA2gJQwiVZK+P8LUUQJSGlFKUaANoCUMICh4LSnQi9j+UhpRSlGgDaAlDCPIXIg4Q8tY/lIaUUpRoA2gJQwjyFyIOEPLWP5SGlFKUaANoCUMI+DtCGpcFHMCUhpRSlGgDaAlDCJDXX1IUMBNAlIaUUpRoA2gJQwjdxbal09Pzv5SGlFKUaANoCUMIaFS55R9O5D+UhpRSlGgDaAlDCGhUueUfTuQ/lIaUUpRoA2gJQwhoVLnlH07kP5SGlFKUaANoCUMI3cW2pdPT87+UhpRSlGgDaAlDCGhUueUfTuQ/lIaUUpRoA2gJQwhoVLnlH07kP5SGlFKUaANoCUMIaFS55R9O5D+UhpRSlGUu

>  <experimental dG reference units>  (28) 
kcal/mol

>  <experimental dG reference field>  (28) 
r_exp_dg

>  <kJ/mol experimental dG>  (28) 
-43.34624

>  <kcal/mol experimental dG>  (28) 
-10.36

$$$$
2bb
     RDKit          3D

 44 46  0  0  1  0  0  0  0  0999 V2000
   15.9278   10.6025   31.6565 C   0  0  0  0  0  0  0  0  0  0  0  0
   21.3330   12.5360   31.2560 C   0  0  0  0  0  0  0  0  0  0  0  0
   17.2137   11.1302   31.7506 C   0  0  0  0  0  0  0  0  0  0  0  0
   23.8140    8.4300   31.0230 C   0  0  0  0  0  0  0  0  0  0  0  0
   26.2615    8.5877   31.0624 C   0  0  0  0  0  0  0  0  0  0  0  0
   21.4260    9.7450   30.7760 C   0  0  0  0  0  0  0  0  0  0  0  0
   20.2000   10.4070   30.6460 C   0  0  0  0  0  0  0  0  0  0  0  0
   15.1487   10.8617   30.5326 C   0  0  0  0  0  0  0  0  0  0  0  0
   15.6429   11.6687   29.5122 C   0  0  0  0  0  0  0  0  0  0  0  0
   16.9243   12.2106   29.6054 C   0  0  0  0  0  0  0  0  0  0  0  0
   22.5820   10.4440   31.1400 C   0  0  0  0  0  0  0  0  0  0  0  0
   21.5200    8.3710   30.5390 C   0  0  0  0  0  0  0  0  0  0  0  0
   20.1110   11.7830   30.8770 C   0  0  0  0  0  0  0  0  0  0  0  0
   17.7257   11.9265   30.7122 C   0  0  0  0  0  0  0  0  0  0  0  0
   23.7883   12.5344   31.7935 C   0  0  0  0  0  0  0  0  0  0  0  0
   17.9627   10.8569   32.8435 F   0  0  0  0  0  0  0  0  0  0  0  0
   13.9208   10.3187   30.4189 F   0  0  0  0  0  0  0  0  0  0  0  0
   18.9649   12.5214   30.7813 O   0  0  0  0  0  0  0  0  0  0  0  0
   22.6990    7.7390   30.6640 N   0  0  0  0  0  0  0  0  0  0  0  0
   21.2570   13.7670   31.4640 O   0  0  0  0  0  0  0  0  0  0  0  0
   22.5560   11.8400   31.3820 N   0  0  0  0  0  0  0  0  0  0  0  0
   23.7460    9.7650   31.2550 N   0  0  0  0  0  0  0  0  0  0  0  0
   25.0386    7.7907   31.1617 N   0  0  0  0  0  0  0  0  0  0  0  0
   15.0281   11.8670   28.6481 H   0  0  0  0  0  0  0  0  0  0  0  0
   17.3022   12.8438   28.8153 H   0  0  0  0  0  0  0  0  0  0  0  0
   15.5459    9.9706   32.4438 H   0  0  0  0  0  0  0  0  0  0  0  0
   19.3168    9.8557   30.3570 H   0  0  0  0  0  0  0  0  0  0  0  0
   20.6600    7.7845   30.2456 H   0  0  0  0  0  0  0  0  0  0  0  0
   26.2086    9.4661   31.7125 H   0  0  0  0  0  0  0  0  0  0  0  0
   24.1818   12.0862   32.7063 H   0  0  0  0  0  0  0  0  0  0  0  0
   24.5495   12.4359   31.0193 H   0  0  0  0  0  0  0  0  0  0  0  0
   23.6411   13.5982   31.9851 H   0  0  0  0  0  0  0  0  0  0  0  0
   25.0629    6.8164   30.8791 H   0  0  0  0  0  0  0  0  0  0  0  0
   26.3030    9.0096   30.0547 H   0  0  0  0  0  0  0  0  0  0  0  0
   27.5401    7.7938   31.3440 C   0  0  0  0  0  0  0  0  0  0  0  0
   27.4964    6.7909   30.9448 H   0  0  0  0  0  0  0  0  0  0  0  0
   28.4117    8.2888   30.9275 H   0  0  0  0  0  0  0  0  0  0  0  0
   27.9097    7.6127   33.1616 S   0  0  0  0  0  0  0  0  0  0  0  0
   27.9382    8.9531   33.7522 O   0  0  0  0  0  0  0  0  0  0  0  0
   29.0929    6.7597   33.3027 O   0  0  0  0  0  0  0  0  0  0  0  0
   26.4763    6.6864   33.8711 C   0  0  0  0  0  0  0  0  0  0  0  0
   26.6909    6.4946   34.9167 H   0  0  0  0  0  0  0  0  0  0  0  0
   25.5915    7.3036   33.7601 H   0  0  0  0  0  0  0  0  0  0  0  0
   26.3730    5.7617   33.3111 H   0  0  0  0  0  0  0  0  0  0  0  0
  1  3  2  0
  1  8  1  0
  1 26  1  0
  2 13  1  0
  2 20  2  0
  2 21  1  0
  3 14  1  0
  3 16  1  0
  4 19  1  0
  4 22  2  0
  4 23  1  0
  5 23  1  0
  5 29  1  0
  5 34  1  0
  5 35  1  0
  6  7  1  0
  6 11  2  0
  6 12  1  0
  7 13  2  0
  7 27  1  0
  8  9  2  0
  8 17  1  0
  9 10  1  0
  9 24  1  0
 10 14  2  0
 10 25  1  0
 11 21  1  0
 11 22  1  0
 12 19  2  0
 12 28  1  0
 13 18  1  0
 14 18  1  0
 15 21  1  0
 15 30  1  0
 15 31  1  0
 15 32  1  0
 23 33  1  0
 35 36  1  0
 35 37  1  0
 35 38  1  0
 38 39  2  0
 38 40  2  0
 38 41  1  0
 41 42  1  0
 41 43  1  0
 41 44  1  0
M  END
>  <r_exp_dg>  (29) 
-9.06

>  <AmberAM1BCCCache>  (29) 
gASVnwMAAAAAAABdlCiMFm51bXB5Ll9jb3JlLm11bHRpYXJyYXmUjAZzY2FsYXKUk5SMBW51bXB5lIwFZHR5cGWUk5SMAmY4lImIh5RSlChLA4wBPJROTk5K/////0r/////SwB0lGJDCJgOXeYt4gHAlIaUUpRoA2gJQwhYVWlfF3wgQJSGlFKUaANoCUMIxQf8wPka/D+UhpRSlGgDaAlDCEa4kDNouiVAlIaUUpRoA2gJQwj/TKWenGMHQJSGlFKUaANoCUMIXxKluTy7E8CUhpRSlGgDaAlDCNuSLJ8zQ3c/lIaUUpRoA2gJQwi0Trjhxkb5P5SGlFKUaANoCUMIfrQ6vWa7/b+UhpRSlGgDaAlDCBJmQ+k4pva/lIaUUpRoA2gJQwgdhY9I1FwdQJSGlFKUaANoCUMI+/vwNSCfGECUhpRSlGgDaAlDCHSqoDWbDeK/lIaUUpRoA2gJQwhitklbigLnP5SGlFKUaANoCUMIMs4/Vw8l6j+UhpRSlGgDaAlDCPLMA/Jkofa/lIaUUpRoA2gJQwj3hH9oUoD5v5SGlFKUaANoCUMIL27WtGkyBMCUhpRSlGgDaAlDCDfytGna7SHAlIaUUpRoA2gJQwjLJO8Qpy8cwJSGlFKUaANoCUMIZSXaP23+E8CUhpRSlGgDaAlDCMTWSxglBiPAlIaUUpRoA2gJQwjj0TRRl7ojwJSGlFKUaANoCUMI2oBnvAhn/T+UhpRSlGgDaAlDCN92+1j1zP0/lIaUUpRoA2gJQwihSJtWB6X/P5SGlFKUaANoCUMIKGgLnilj/j+UhpRSlGgDaAlDCDxShc9XqNo/lIaUUpRoA2gJQwjdpGRjNcDpP5SGlFKUaANoCUMIGnYyZNes6D+UhpRSlGgDaAlDCBp2MmTXrOg/lIaUUpRoA2gJQwgadjJk16zoP5SGlFKUaANoCUMI97yvF0wCFUCUhpRSlGgDaAlDCN2kZGM1wOk/lIaUUpRoA2gJQwi+evi8yfIPwJSGlFKUaANoCUMIVl13+Zym9j+UhpRSlGgDaAlDCFZdd/mcpvY/lIaUUpRoA2gJQwi6sdJPdbAvQJSGlFKUaANoCUMIBp9HnUp1HsCUhpRSlGgDaAlDCAafR51KdR7AlIaUUpRoA2gJQwjuWeq2++URwJSGlFKUaANoCUMImij2BClT9z+UhpRSlGgDaAlDCJoo9gQpU/c/lIaUUpRoA2gJQwiaKPYEKVP3P5SGlFKUZS4=

>  <experimental dG reference units>  (29) 
kcal/mol

>  <experimental dG reference field>  (29) 
r_exp_dg

>  <kJ/mol experimental dG>  (29) 
-37.90704

>  <kcal/mol experimental dG>  (29) 
-9.06

$$$$
2m
     RDKit          3D

 50 54  0  0  1  0  0  0  0  0999 V2000
   26.9820    8.8998   30.3634 C   0  0  0  0  0  0  0  0  0  0  0  0
   28.3263    9.5424   30.7502 C   0  0  0  0  0  0  0  0  0  0  0  0
   28.4627    8.2279   32.7631 C   0  0  0  0  0  0  0  0  0  0  0  0
   27.1179    7.5421   32.4656 C   0  0  0  0  0  0  0  0  0  0  0  0
   15.9277   10.6068   31.6528 C   0  0  0  0  0  0  0  0  0  0  0  0
   29.0924    8.6309   31.5432 O   0  0  0  0  0  0  0  0  0  0  0  0
   21.3330   12.5360   31.2560 C   0  0  0  0  0  0  0  0  0  0  0  0
   17.2138   11.1340   31.7471 C   0  0  0  0  0  0  0  0  0  0  0  0
   23.8140    8.4300   31.0230 C   0  0  0  0  0  0  0  0  0  0  0  0
   26.2272    8.4653   31.6261 C   0  0  0  0  0  0  0  0  0  0  0  0
   21.4260    9.7450   30.7760 C   0  0  0  0  0  0  0  0  0  0  0  0
   20.2000   10.4070   30.6460 C   0  0  0  0  0  0  0  0  0  0  0  0
   15.1497   10.8631   30.5276 C   0  0  0  0  0  0  0  0  0  0  0  0
   15.6450   11.6675   29.5059 C   0  0  0  0  0  0  0  0  0  0  0  0
   16.9266   12.2091   29.5993 C   0  0  0  0  0  0  0  0  0  0  0  0
   22.5820   10.4440   31.1400 C   0  0  0  0  0  0  0  0  0  0  0  0
   21.5200    8.3710   30.5390 C   0  0  0  0  0  0  0  0  0  0  0  0
   20.1110   11.7830   30.8770 C   0  0  0  0  0  0  0  0  0  0  0  0
   17.7270   11.9272   30.7075 C   0  0  0  0  0  0  0  0  0  0  0  0
   17.9598   10.8656   32.8430 F   0  0  0  0  0  0  0  0  0  0  0  0
   13.9214   10.3207   30.4142 F   0  0  0  0  0  0  0  0  0  0  0  0
   18.9659   12.5220   30.7784 O   0  0  0  0  0  0  0  0  0  0  0  0
   22.6990    7.7390   30.6640 N   0  0  0  0  0  0  0  0  0  0  0  0
   21.2570   13.7670   31.4640 O   0  0  0  0  0  0  0  0  0  0  0  0
   22.5560   11.8400   31.3820 N   0  0  0  0  0  0  0  0  0  0  0  0
   23.7460    9.7650   31.2550 N   0  0  0  0  0  0  0  0  0  0  0  0
   25.0073    7.7581   31.2463 N   0  0  0  0  0  0  0  0  0  0  0  0
   15.0313   11.8641   28.6410 H   0  0  0  0  0  0  0  0  0  0  0  0
   17.3058   12.8404   28.8083 H   0  0  0  0  0  0  0  0  0  0  0  0
   15.5449    9.9773   32.4416 H   0  0  0  0  0  0  0  0  0  0  0  0
   19.3170    9.8547   30.3580 H   0  0  0  0  0  0  0  0  0  0  0  0
   20.6585    7.7869   30.2467 H   0  0  0  0  0  0  0  0  0  0  0  0
   27.1624    8.0388   29.7185 H   0  0  0  0  0  0  0  0  0  0  0  0
   26.3872    9.6081   29.7854 H   0  0  0  0  0  0  0  0  0  0  0  0
   28.1680   10.4752   31.2956 H   0  0  0  0  0  0  0  0  0  0  0  0
   28.8944    9.8044   29.8580 H   0  0  0  0  0  0  0  0  0  0  0  0
   29.1244    7.5417   33.2934 H   0  0  0  0  0  0  0  0  0  0  0  0
   28.3225    9.0914   33.4170 H   0  0  0  0  0  0  0  0  0  0  0  0
   26.6201    7.2730   33.3980 H   0  0  0  0  0  0  0  0  0  0  0  0
   27.3171    6.6117   31.9331 H   0  0  0  0  0  0  0  0  0  0  0  0
   25.9759    9.3517   32.2164 H   0  0  0  0  0  0  0  0  0  0  0  0
   23.9258   12.4358   32.9318 H   0  0  0  0  0  0  0  0  0  0  0  0
   25.0620    6.7717   31.0145 H   0  0  0  0  0  0  0  0  0  0  0  0
   23.7722   12.5417   31.8558 C   0  0  0  0  0  0  0  0  0  0  0  0
   25.0286   12.5259   30.9991 C   0  0  0  0  0  0  0  0  0  0  0  0
   24.2630   13.8110   31.1745 C   0  0  0  0  0  0  0  0  0  0  0  0
   25.0015   12.0230   30.0307 H   0  0  0  0  0  0  0  0  0  0  0  0
   25.9916   12.4056   31.4965 H   0  0  0  0  0  0  0  0  0  0  0  0
   24.6820   14.6007   31.7998 H   0  0  0  0  0  0  0  0  0  0  0  0
   23.7117   14.2106   30.3214 H   0  0  0  0  0  0  0  0  0  0  0  0
  1  2  1  0
  1 10  1  0
  1 33  1  0
  1 34  1  0
  2  6  1  0
  2 35  1  0
  2 36  1  0
  3  4  1  0
  3  6  1  0
  3 37  1  0
  3 38  1  0
  4 10  1  0
  4 39  1  0
  4 40  1  0
  5  8  2  0
  5 13  1  0
  5 30  1  0
  7 18  1  0
  7 24  2  0
  7 25  1  0
  8 19  1  0
  8 20  1  0
  9 23  1  0
  9 26  2  0
  9 27  1  0
 10 27  1  0
 10 41  1  0
 11 12  1  0
 11 16  2  0
 11 17  1  0
 12 18  2  0
 12 31  1  0
 13 14  2  0
 13 21  1  0
 14 15  1  0
 14 28  1  0
 15 19  2  0
 15 29  1  0
 16 25  1  0
 16 26  1  0
 17 23  2  0
 17 32  1  0
 18 22  1  0
 19 22  1  0
 25 44  1  0
 27 43  1  0
 42 44  1  0
 44 45  1  0
 44 46  1  0
 45 46  1  0
 45 47  1  0
 45 48  1  0
 46 49  1  0
 46 50  1  0
M  END
>  <r_exp_dg>  (30) 
-10.96

>  <AmberAM1BCCCache>  (30) 
gASVEQQAAAAAAABdlCiMFm51bXB5Ll9jb3JlLm11bHRpYXJyYXmUjAZzY2FsYXKUk5SMBW51bXB5lIwFZHR5cGWUk5SMAmY4lImIh5RSlChLA4wBPJROTk5K/////0r/////SwB0lGJDCIbWYPBGxfi/lIaUUpRoA2gJQwhuXkxZXCv4P5SGlFKUaANoCUMIbl5MWVwr+D+UhpRSlGgDaAlDCIbWYPBGxfi/lIaUUpRoA2gJQwiwh9q3emsDwJSGlFKUaANoCUMIx0w7f12QE8CUhpRSlGgDaAlDCLROdsSBsCBAlIaUUpRoA2gJQwgP14RDvob7P5SGlFKUaANoCUMIBQaNz3ChJUCUhpRSlGgDaAlDCG5accpGkgRAlIaUUpRoA2gJQwhc4tc0Z7kTwJSGlFKUaANoCUMIcPuVEGgHoD+UhpRSlGgDaAlDCGu/8I0kePw/lIaUUpRoA2gJQwj60FgEJH8AwJSGlFKUaANoCUMIKex+wSOl7L+UhpRSlGgDaAlDCKDkzoh7hB1AlIaUUpRoA2gJQwhs/fq6wHEYQJSGlFKUaANoCUMIVabI6nwt47+UhpRSlGgDaAlDCGCkSAnWgNc/lIaUUpRoA2gJQwji2CIcI634v5SGlFKUaANoCUMIssqWFfo9+b+UhpRSlGgDaAlDCADE9qwrGQXAlIaUUpRoA2gJQwjH9KAOA+MhwJSGlFKUaANoCUMI7RdmuLPRHMCUhpRSlGgDaAlDCFsR2sDv3hLAlIaUUpRoA2gJQwhdWzs4hOYiwJSGlFKUaANoCUMI73TYynlpI8CUhpRSlGgDaAlDCHI3lCDuzv0/lIaUUpRoA2gJQwiG2RFHYosBQJSGlFKUaANoCUMInhF0ZCtR/z+UhpRSlGgDaAlDCA9Sf1n8yf4/lIaUUpRoA2gJQwiiaxjvMcTZP5SGlFKUaANoCUMI1zh1rRL55j+UhpRSlGgDaAlDCNc4da0S+eY/lIaUUpRoA2gJQwg1wDzDsJ3jP5SGlFKUaANoCUMINcA8w7Cd4z+UhpRSlGgDaAlDCDXAPMOwneM/lIaUUpRoA2gJQwg1wDzDsJ3jP5SGlFKUaANoCUMI1zh1rRL55j+UhpRSlGgDaAlDCNc4da0S+eY/lIaUUpRoA2gJQwgPt+4o2ozwP5SGlFKUaANoCUMIuSzQj8f78T+UhpRSlGgDaAlDCAzE7K9BmxRAlIaUUpRoA2gJQwhpNkJ9Fc7XP5SGlFKUaANoCUMI6CYlwISQ9b+UhpRSlGgDaAlDCOgmJcCEkPW/lIaUUpRoA2gJQwjEn8fowx7vP5SGlFKUaANoCUMIxJ/H6MMe7z+UhpRSlGgDaAlDCMSfx+jDHu8/lIaUUpRoA2gJQwjEn8fowx7vP5SGlFKUZS4=

>  <experimental dG reference units>  (30) 
kcal/mol

>  <experimental dG reference field>  (30) 
r_exp_dg

>  <kJ/mol experimental dG>  (30) 
-45.856640000000006

>  <kcal/mol experimental dG>  (30) 
-10.96

$$$$
3fly
     RDKit          3D

 41 43  0  0  1  0  0  0  0  0999 V2000
   15.9282   10.6061   31.6551 C   0  0  0  0  0  0  0  0  0  0  0  0
   21.3330   12.5360   31.2560 C   0  0  0  0  0  0  0  0  0  0  0  0
   17.2142   11.1336   31.7489 C   0  0  0  0  0  0  0  0  0  0  0  0
   23.8140    8.4300   31.0230 C   0  0  0  0  0  0  0  0  0  0  0  0
   26.2550    8.4177   31.5133 C   0  0  0  0  0  0  0  0  0  0  0  0
   21.4260    9.7450   30.7760 C   0  0  0  0  0  0  0  0  0  0  0  0
   20.2000   10.4070   30.6460 C   0  0  0  0  0  0  0  0  0  0  0  0
   15.1495   10.8626   30.5305 C   0  0  0  0  0  0  0  0  0  0  0  0
   15.6439   11.6676   29.5089 C   0  0  0  0  0  0  0  0  0  0  0  0
   16.9255   12.2094   29.6016 C   0  0  0  0  0  0  0  0  0  0  0  0
   22.5820   10.4440   31.1400 C   0  0  0  0  0  0  0  0  0  0  0  0
   21.5200    8.3710   30.5390 C   0  0  0  0  0  0  0  0  0  0  0  0
   20.1110   11.7830   30.8770 C   0  0  0  0  0  0  0  0  0  0  0  0
   17.7267   11.9271   30.7092 C   0  0  0  0  0  0  0  0  0  0  0  0
   23.7887   12.5346   31.7918 C   0  0  0  0  0  0  0  0  0  0  0  0
   17.9610   10.8650   32.8442 F   0  0  0  0  0  0  0  0  0  0  0  0
   13.9213   10.3198   30.4175 F   0  0  0  0  0  0  0  0  0  0  0  0
   18.9657   12.5220   30.7792 O   0  0  0  0  0  0  0  0  0  0  0  0
   22.6990    7.7390   30.6640 N   0  0  0  0  0  0  0  0  0  0  0  0
   21.2570   13.7670   31.4640 O   0  0  0  0  0  0  0  0  0  0  0  0
   22.5560   11.8400   31.3820 N   0  0  0  0  0  0  0  0  0  0  0  0
   23.7460    9.7650   31.2550 N   0  0  0  0  0  0  0  0  0  0  0  0
   24.9909    7.7421   31.2596 N   0  0  0  0  0  0  0  0  0  0  0  0
   15.0296   11.8644   28.6444 H   0  0  0  0  0  0  0  0  0  0  0  0
   17.3040   12.8410   28.8106 H   0  0  0  0  0  0  0  0  0  0  0  0
   15.5460    9.9762   32.4440 H   0  0  0  0  0  0  0  0  0  0  0  0
   19.3169    9.8548   30.3582 H   0  0  0  0  0  0  0  0  0  0  0  0
   20.6585    7.7869   30.2467 H   0  0  0  0  0  0  0  0  0  0  0  0
   26.0689    9.3898   31.9793 H   0  0  0  0  0  0  0  0  0  0  0  0
   24.1801   12.0903   32.7074 H   0  0  0  0  0  0  0  0  0  0  0  0
   24.5509   12.4310   31.0192 H   0  0  0  0  0  0  0  0  0  0  0  0
   23.6431   13.5996   31.9778 H   0  0  0  0  0  0  0  0  0  0  0  0
   25.0170    6.7553   31.0251 H   0  0  0  0  0  0  0  0  0  0  0  0
   27.1133    7.6031   32.4863 C   0  0  0  0  0  0  0  0  0  0  0  0
   28.0381    8.1272   32.7281 H   0  0  0  0  0  0  0  0  0  0  0  0
   26.5850    7.4250   33.4237 H   0  0  0  0  0  0  0  0  0  0  0  0
   27.3854    6.6328   32.0691 H   0  0  0  0  0  0  0  0  0  0  0  0
   26.9893    8.6711   30.1945 C   0  0  0  0  0  0  0  0  0  0  0  0
   26.4078    9.3145   29.5332 H   0  0  0  0  0  0  0  0  0  0  0  0
   27.9525    9.1551   30.3573 H   0  0  0  0  0  0  0  0  0  0  0  0
   27.1675    7.7342   29.6677 H   0  0  0  0  0  0  0  0  0  0  0  0
  1  3  2  0
  1  8  1  0
  1 26  1  0
  2 13  1  0
  2 20  2  0
  2 21  1  0
  3 14  1  0
  3 16  1  0
  4 19  1  0
  4 22  2  0
  4 23  1  0
  5 23  1  0
  5 29  1  0
  5 34  1  0
  5 38  1  0
  6  7  1  0
  6 11  2  0
  6 12  1  0
  7 13  2  0
  7 27  1  0
  8  9  2  0
  8 17  1  0
  9 10  1  0
  9 24  1  0
 10 14  2  0
 10 25  1  0
 11 21  1  0
 11 22  1  0
 12 19  2  0
 12 28  1  0
 13 18  1  0
 14 18  1  0
 15 21  1  0
 15 30  1  0
 15 31  1  0
 15 32  1  0
 23 33  1  0
 34 35  1  0
 34 36  1  0
 34 37  1  0
 38 39  1  0
 38 40  1  0
 38 41  1  0
M  END
>  <r_exp_dg>  (31) 
-11.42

>  <AmberAM1BCCCache>  (31) 
gASVZgMAAAAAAABdlCiMFm51bXB5Ll9jb3JlLm11bHRpYXJyYXmUjAZzY2FsYXKUk5SMBW51bXB5lIwFZHR5cGWUk5SMAmY4lImIh5RSlChLA4wBPJROTk5K/////0r/////SwB0lGJDCCdENlDLgwPAlIaUUpRoA2gJQwjl+X+rL6MgQJSGlFKUaANoCUMIZVlJu2SG+z+UhpRSlGgDaAlDCPVcwCwp4CVAlIaUUpRoA2gJQwiRnqqJjn4GQJSGlFKUaANoCUMIrrqgE+kBFMCUhpRSlGgDaAlDCNzMRBP/rrc/lIaUUpRoA2gJQwh7Rjldg0f8P5SGlFKUaANoCUMIz492yFB/AMCUhpRSlGgDaAlDCH7n9dHWpey/lIaUUpRoA2gJQwjc2KWlYz4dQJSGlFKUaANoCUMItkzIBYifGECUhpRSlGgDaAlDCM3pJcstY+S/lIaUUpRoA2gJQwjNmkqKjkDYP5SGlFKUaANoCUMIF0Hqd2zp6j+UhpRSlGgDaAlDCIxWXqR8rfi/lIaUUpRoA2gJQwhcSNKdUz75v5SGlFKUaANoCUMIdLdVi9wKBcCUhpRSlGgDaAlDCHTFA9uTGiLAlIaUUpRoA2gJQwjotmkl+VgdwJSGlFKUaANoCUMIldWxK6L0E8CUhpRSlGgDaAlDCP6uUDvo/yLAlIaUUpRoA2gJQwiHKUlpY7ojwJSGlFKUaANoCUMIyLlYmJTO/T+UhpRSlGgDaAlDCLEa9II1iwFAlIaUUpRoA2gJQwj0kzjc0VD/P5SGlFKUaANoCUMII6LE4vq//j+UhpRSlGgDaAlDCOOHOiytAdk/lIaUUpRoA2gJQwgo2pc8u8PiP5SGlFKUaANoCUMI2ad14SnL5z+UhpRSlGgDaAlDCNmndeEpy+c/lIaUUpRoA2gJQwjZp3XhKcvnP5SGlFKUaANoCUMIPgx0d3QRFUCUhpRSlGgDaAlDCL3p75Rn2fS/lIaUUpRoA2gJQwi3n926vBLiP5SGlFKUaANoCUMIt5/durwS4j+UhpRSlGgDaAlDCLef3bq8EuI/lIaUUpRoA2gJQwi96e+UZ9n0v5SGlFKUaANoCUMIt5/durwS4j+UhpRSlGgDaAlDCLef3bq8EuI/lIaUUpRoA2gJQwi3n926vBLiP5SGlFKUZS4=

>  <experimental dG reference units>  (31) 
kcal/mol

>  <experimental dG reference field>  (31) 
r_exp_dg

>  <kJ/mol experimental dG>  (31) 
-47.78128

>  <kcal/mol experimental dG>  (31) 
-11.42

$$$$
2u
     RDKit          3D

 64 68  0  0  1  0  0  0  0  0999 V2000
   26.9694    8.9298   30.3559 C   0  0  0  0  0  0  0  0  0  0  0  0
   28.3131    9.5777   30.7364 C   0  0  0  0  0  0  0  0  0  0  0  0
   28.4743    8.2471   32.7368 C   0  0  0  0  0  0  0  0  0  0  0  0
   27.1330    7.5525   32.4434 C   0  0  0  0  0  0  0  0  0  0  0  0
   15.9294   10.6064   31.6561 C   0  0  0  0  0  0  0  0  0  0  0  0
   29.0914    8.6648   31.5156 O   0  0  0  0  0  0  0  0  0  0  0  0
   21.3330   12.5360   31.2560 C   0  0  0  0  0  0  0  0  0  0  0  0
   17.2154   11.1341   31.7491 C   0  0  0  0  0  0  0  0  0  0  0  0
   23.8140    8.4300   31.0230 C   0  0  0  0  0  0  0  0  0  0  0  0
   26.2279    8.4761   31.6203 C   0  0  0  0  0  0  0  0  0  0  0  0
   21.4260    9.7450   30.7760 C   0  0  0  0  0  0  0  0  0  0  0  0
   20.2000   10.4070   30.6460 C   0  0  0  0  0  0  0  0  0  0  0  0
   15.1503   10.8625   30.5316 C   0  0  0  0  0  0  0  0  0  0  0  0
   15.6441   11.6673   29.5096 C   0  0  0  0  0  0  0  0  0  0  0  0
   16.9256   12.2094   29.6017 C   0  0  0  0  0  0  0  0  0  0  0  0
   22.5820   10.4440   31.1400 C   0  0  0  0  0  0  0  0  0  0  0  0
   21.5200    8.3710   30.5390 C   0  0  0  0  0  0  0  0  0  0  0  0
   20.1110   11.7830   30.8770 C   0  0  0  0  0  0  0  0  0  0  0  0
   17.7272   11.9274   30.7090 C   0  0  0  0  0  0  0  0  0  0  0  0
   17.9629   10.8661   32.8442 F   0  0  0  0  0  0  0  0  0  0  0  0
   13.9221   10.3195   30.4192 F   0  0  0  0  0  0  0  0  0  0  0  0
   18.9662   12.5222   30.7785 O   0  0  0  0  0  0  0  0  0  0  0  0
   22.6990    7.7390   30.6640 N   0  0  0  0  0  0  0  0  0  0  0  0
   21.2570   13.7670   31.4640 O   0  0  0  0  0  0  0  0  0  0  0  0
   22.5560   11.8400   31.3820 N   0  0  0  0  0  0  0  0  0  0  0  0
   23.7460    9.7650   31.2550 N   0  0  0  0  0  0  0  0  0  0  0  0
   25.0102    7.7628   31.2437 N   0  0  0  0  0  0  0  0  0  0  0  0
   15.0294   11.8639   28.6453 H   0  0  0  0  0  0  0  0  0  0  0  0
   17.3037   12.8409   28.8104 H   0  0  0  0  0  0  0  0  0  0  0  0
   15.5477    9.9767   32.4453 H   0  0  0  0  0  0  0  0  0  0  0  0
   19.3169    9.8550   30.3580 H   0  0  0  0  0  0  0  0  0  0  0  0
   20.6585    7.7868   30.2466 H   0  0  0  0  0  0  0  0  0  0  0  0
   27.1502    8.0769   29.7004 H   0  0  0  0  0  0  0  0  0  0  0  0
   26.3647    9.6396   29.7900 H   0  0  0  0  0  0  0  0  0  0  0  0
   28.1545   10.5058   31.2900 H   0  0  0  0  0  0  0  0  0  0  0  0
   28.8721    9.8492   29.8413 H   0  0  0  0  0  0  0  0  0  0  0  0
   29.1456    7.5621   33.2566 H   0  0  0  0  0  0  0  0  0  0  0  0
   28.3319    9.1042   33.3985 H   0  0  0  0  0  0  0  0  0  0  0  0
   26.6449    7.2704   33.3771 H   0  0  0  0  0  0  0  0  0  0  0  0
   27.3352    6.6289   31.9002 H   0  0  0  0  0  0  0  0  0  0  0  0
   25.9735    9.3539   32.2220 H   0  0  0  0  0  0  0  0  0  0  0  0
   24.6255   11.8232   31.5410 H   0  0  0  0  0  0  0  0  0  0  0  0
   25.0679    6.7765   31.0125 H   0  0  0  0  0  0  0  0  0  0  0  0
   25.3927   13.1140   33.6749 C   0  0  0  0  0  0  0  0  0  0  0  0
   23.9469   12.7330   33.2953 C   0  0  0  0  0  0  0  0  0  0  0  0
   23.8207   12.5159   31.7818 C   0  0  0  0  0  0  0  0  0  0  0  0
   24.2624   13.7913   31.0228 C   0  0  0  0  0  0  0  0  0  0  0  0
   25.7121   14.1781   31.3948 C   0  0  0  0  0  0  0  0  0  0  0  0
   25.9087   14.2532   32.8696 N   0  0  0  0  0  0  0  0  0  0  0  0
   26.0689   12.2722   33.5168 H   0  0  0  0  0  0  0  0  0  0  0  0
   25.4583   13.3739   34.7311 H   0  0  0  0  0  0  0  0  0  0  0  0
   23.6400   11.8306   33.8217 H   0  0  0  0  0  0  0  0  0  0  0  0
   23.2423   13.4995   33.6127 H   0  0  0  0  0  0  0  0  0  0  0  0
   23.6030   14.6263   31.2621 H   0  0  0  0  0  0  0  0  0  0  0  0
   24.1861   13.6370   29.9455 H   0  0  0  0  0  0  0  0  0  0  0  0
   26.4203   13.4448   31.0046 H   0  0  0  0  0  0  0  0  0  0  0  0
   25.9870   15.1377   30.9542 H   0  0  0  0  0  0  0  0  0  0  0  0
   27.3332   15.1055   33.4894 S   0  0  0  0  0  0  0  0  0  0  0  0
   27.1973   15.2488   34.9443 O   0  0  0  0  0  0  0  0  0  0  0  0
   27.5725   16.2900   32.6569 O   0  0  0  0  0  0  0  0  0  0  0  0
   28.7210   13.9085   33.1749 C   0  0  0  0  0  0  0  0  0  0  0  0
   28.5146   12.9953   33.7256 H   0  0  0  0  0  0  0  0  0  0  0  0
   28.7711   13.7156   32.1065 H   0  0  0  0  0  0  0  0  0  0  0  0
   29.6416   14.3663   33.5250 H   0  0  0  0  0  0  0  0  0  0  0  0
  1  2  1  0
  1 10  1  0
  1 33  1  0
  1 34  1  0
  2  6  1  0
  2 35  1  0
  2 36  1  0
  3  4  1  0
  3  6  1  0
  3 37  1  0
  3 38  1  0
  4 10  1  0
  4 39  1  0
  4 40  1  0
  5  8  2  0
  5 13  1  0
  5 30  1  0
  7 18  1  0
  7 24  2  0
  7 25  1  0
  8 19  1  0
  8 20  1  0
  9 23  1  0
  9 26  2  0
  9 27  1  0
 10 27  1  0
 10 41  1  0
 11 12  1  0
 11 16  2  0
 11 17  1  0
 12 18  2  0
 12 31  1  0
 13 14  2  0
 13 21  1  0
 14 15  1  0
 14 28  1  0
 15 19  2  0
 15 29  1  0
 16 25  1  0
 16 26  1  0
 17 23  2  0
 17 32  1  0
 18 22  1  0
 19 22  1  0
 25 46  1  0
 27 43  1  0
 42 46  1  0
 44 45  1  0
 44 49  1  0
 44 50  1  0
 44 51  1  0
 45 46  1  0
 45 52  1  0
 45 53  1  0
 46 47  1  0
 47 48  1  0
 47 54  1  0
 47 55  1  0
 48 49  1  0
 48 56  1  0
 48 57  1  0
 49 58  1  0
 58 59  2  0
 58 60  2  0
 58 61  1  0
 61 62  1  0
 61 63  1  0
 61 64  1  0
M  END
>  <r_exp_dg>  (32) 
-12.26

>  <AmberAM1BCCCache>  (32) 
gASVGwUAAAAAAABdlCiMFm51bXB5Ll9jb3JlLm11bHRpYXJyYXmUjAZzY2FsYXKUk5SMBW51bXB5lIwFZHR5cGWUk5SMAmY4lImIh5RSlChLA4wBPJROTk5K/////0r/////SwB0lGJDCOcWzcamsfi/lIaUUpRoA2gJQwjqhKCLKDr4P5SGlFKUaANoCUMI6oSgiyg6+D+UhpRSlGgDaAlDCOcWzcamsfi/lIaUUpRoA2gJQwhJJyCYs2cDwJSGlFKUaANoCUMIoYT/DZR9E8CUhpRSlGgDaAlDCPznRaJhpSBAlIaUUpRoA2gJQwiZZXqUpIT7P5SGlFKUaANoCUMIhTI3N37XJUCUhpRSlGgDaAlDCDlP54kpywRAlIaUUpRoA2gJQwhcfNh0EdITwJSGlFKUaANoCUMICzJtlp8Gqj+UhpRSlGgDaAlDCP7f31JKw/w/lIaUUpRoA2gJQwhmb73ObocAwJSGlFKUaANoCUMITTgWVF+M7L+UhpRSlGgDaAlDCEBduMcHsx1AlIaUUpRoA2gJQwj5REYhk4oYQJSGlFKUaANoCUMICbJUiOeb47+UhpRSlGgDaAlDCPtVLYigytY/lIaUUpRoA2gJQwgVGK7clKX4v5SGlFKUaANoCUMI4kAlHMwP+b+UhpRSlGgDaAlDCIcynrSq/wTAlIaUUpRoA2gJQwjgtzvkxdEhwJSGlFKUaANoCUMInAqb+mB2HcCUhpRSlGgDaAlDCGf5JT4+8BPAlIaUUpRoA2gJQwgIOHOgPFgjwJSGlFKUaANoCUMIGA9p8S9yI8CUhpRSlGgDaAlDCH4qiE4k4P0/lIaUUpRoA2gJQwjUPzHUz1IBQJSGlFKUaANoCUMIbpvlXVl//z+UhpRSlGgDaAlDCILZLidOEP8/lIaUUpRoA2gJQwh3UtPfGATbP5SGlFKUaANoCUMIt8KFxbGz5j+UhpRSlGgDaAlDCLfChcWxs+Y/lIaUUpRoA2gJQwjFooHdUuTjP5SGlFKUaANoCUMIxaKB3VLk4z+UhpRSlGgDaAlDCMWigd1S5OM/lIaUUpRoA2gJQwjFooHdUuTjP5SGlFKUaANoCUMIt8KFxbGz5j+UhpRSlGgDaAlDCLfChcWxs+Y/lIaUUpRoA2gJQwgFo5zTe+bwP5SGlFKUaANoCUMIgiRIFbbc8T+UhpRSlGgDaAlDCNk9twS8vRRAlIaUUpRoA2gJQwgXqfyhGksFQJSGlFKUaANoCUMI4SMvHp8X9L+UhpRSlGgDaAlDCLGtzjEdj/Q/lIaUUpRoA2gJQwjhIy8enxf0v5SGlFKUaANoCUMIF6n8oRpLBUCUhpRSlGgDaAlDCCIdYoiDZSPAlIaUUpRoA2gJQwh4qly4f6DlP5SGlFKUaANoCUMIeKpcuH+g5T+UhpRSlGgDaAlDCMDcJEBqv+k/lIaUUpRoA2gJQwjA3CRAar/pP5SGlFKUaANoCUMIwNwkQGq/6T+UhpRSlGgDaAlDCMDcJEBqv+k/lIaUUpRoA2gJQwh4qly4f6DlP5SGlFKUaANoCUMIeKpcuH+g5T+UhpRSlGgDaAlDCLc0wWxoOjFAlIaUUpRoA2gJQwhf9hYXvMcewJSGlFKUaANoCUMIX/YWF7zHHsCUhpRSlGgDaAlDCHXZIVbfIBHAlIaUUpRoA2gJQwg0kEFv0G71P5SGlFKUaANoCUMINJBBb9Bu9T+UhpRSlGgDaAlDCDSQQW/QbvU/lIaUUpRlLg==

>  <experimental dG reference units>  (32) 
kcal/mol

>  <experimental dG reference field>  (32) 
r_exp_dg

>  <kJ/mol experimental dG>  (32) 
-51.29584

>  <kcal/mol experimental dG>  (32) 
-12.26

$$$$
2r
     RDKit          3D

 56 59  0  0  1  0  0  0  0  0999 V2000
   27.0513    8.7746   30.4001 C   0  0  0  0  0  0  0  0  0  0  0  0
   28.3887    9.4143   30.8165 C   0  0  0  0  0  0  0  0  0  0  0  0
   28.3933    8.2190   32.9075 C   0  0  0  0  0  0  0  0  0  0  0  0
   27.0443    7.5512   32.5855 C   0  0  0  0  0  0  0  0  0  0  0  0
   15.9294   10.6056   31.6566 C   0  0  0  0  0  0  0  0  0  0  0  0
   29.0923    8.5352   31.6992 O   0  0  0  0  0  0  0  0  0  0  0  0
   21.3330   12.5360   31.2560 C   0  0  0  0  0  0  0  0  0  0  0  0
   17.2153   11.1334   31.7498 C   0  0  0  0  0  0  0  0  0  0  0  0
   23.8140    8.4300   31.0230 C   0  0  0  0  0  0  0  0  0  0  0  0
   26.2246    8.4456   31.6484 C   0  0  0  0  0  0  0  0  0  0  0  0
   21.4260    9.7450   30.7760 C   0  0  0  0  0  0  0  0  0  0  0  0
   20.2000   10.4070   30.6460 C   0  0  0  0  0  0  0  0  0  0  0  0
   15.1502   10.8623   30.5324 C   0  0  0  0  0  0  0  0  0  0  0  0
   15.6438   11.6679   29.5108 C   0  0  0  0  0  0  0  0  0  0  0  0
   16.9252   12.2100   29.6032 C   0  0  0  0  0  0  0  0  0  0  0  0
   22.5820   10.4440   31.1400 C   0  0  0  0  0  0  0  0  0  0  0  0
   21.5200    8.3710   30.5390 C   0  0  0  0  0  0  0  0  0  0  0  0
   20.1110   11.7830   30.8770 C   0  0  0  0  0  0  0  0  0  0  0  0
   17.7271   11.9274   30.7102 C   0  0  0  0  0  0  0  0  0  0  0  0
   23.7412   12.5424   31.9384 C   0  0  0  0  0  0  0  0  0  0  0  0
   17.9627   10.8649   32.8449 F   0  0  0  0  0  0  0  0  0  0  0  0
   13.9221   10.3189   30.4197 F   0  0  0  0  0  0  0  0  0  0  0  0
   18.9661   12.5222   30.7797 O   0  0  0  0  0  0  0  0  0  0  0  0
   22.6990    7.7390   30.6640 N   0  0  0  0  0  0  0  0  0  0  0  0
   21.2570   13.7670   31.4640 O   0  0  0  0  0  0  0  0  0  0  0  0
   22.5560   11.8400   31.3820 N   0  0  0  0  0  0  0  0  0  0  0  0
   23.7460    9.7650   31.2550 N   0  0  0  0  0  0  0  0  0  0  0  0
   25.0023    7.7527   31.2540 N   0  0  0  0  0  0  0  0  0  0  0  0
   15.0291   11.8648   28.6467 H   0  0  0  0  0  0  0  0  0  0  0  0
   17.3033   12.8419   28.8122 H   0  0  0  0  0  0  0  0  0  0  0  0
   15.5478    9.9753   32.4453 H   0  0  0  0  0  0  0  0  0  0  0  0
   19.3169    9.8547   30.3584 H   0  0  0  0  0  0  0  0  0  0  0  0
   20.6586    7.7868   30.2467 H   0  0  0  0  0  0  0  0  0  0  0  0
   27.2447    7.8655   29.8294 H   0  0  0  0  0  0  0  0  0  0  0  0
   26.5044    9.4480   29.7398 H   0  0  0  0  0  0  0  0  0  0  0  0
   28.2257   10.3799   31.2995 H   0  0  0  0  0  0  0  0  0  0  0  0
   29.0072    9.6148   29.9423 H   0  0  0  0  0  0  0  0  0  0  0  0
   29.0094    7.5493   33.5089 H   0  0  0  0  0  0  0  0  0  0  0  0
   28.2462    9.1228   33.5027 H   0  0  0  0  0  0  0  0  0  0  0  0
   26.4941    7.3548   33.5065 H   0  0  0  0  0  0  0  0  0  0  0  0
   27.2382    6.5837   32.1207 H   0  0  0  0  0  0  0  0  0  0  0  0
   25.9793    9.3755   32.1700 H   0  0  0  0  0  0  0  0  0  0  0  0
   23.3870   13.2746   32.6668 H   0  0  0  0  0  0  0  0  0  0  0  0
   24.3217   11.8413   32.5397 H   0  0  0  0  0  0  0  0  0  0  0  0
   25.0508    6.7645   31.0285 H   0  0  0  0  0  0  0  0  0  0  0  0
   24.6866   13.2554   30.9380 C   0  0  0  0  0  0  0  0  0  0  0  0
   23.9898   14.2405   29.9871 C   0  0  0  0  0  0  0  0  0  0  0  0
   23.4173   14.9958   30.5263 H   0  0  0  0  0  0  0  0  0  0  0  0
   24.7073   14.7658   29.3548 H   0  0  0  0  0  0  0  0  0  0  0  0
   23.2996   13.7249   29.3188 H   0  0  0  0  0  0  0  0  0  0  0  0
   25.5616   12.2731   30.1513 C   0  0  0  0  0  0  0  0  0  0  0  0
   24.9570   11.6464   29.4953 H   0  0  0  0  0  0  0  0  0  0  0  0
   26.2935   12.7874   29.5266 H   0  0  0  0  0  0  0  0  0  0  0  0
   26.1084   11.6098   30.8207 H   0  0  0  0  0  0  0  0  0  0  0  0
   25.5585   14.0344   31.7265 O   0  0  0  0  0  0  0  0  0  0  0  0
   25.0193   14.6458   32.2488 H   0  0  0  0  0  0  0  0  0  0  0  0
  1  2  1  0
  1 10  1  0
  1 34  1  0
  1 35  1  0
  2  6  1  0
  2 36  1  0
  2 37  1  0
  3  4  1  0
  3  6  1  0
  3 38  1  0
  3 39  1  0
  4 10  1  0
  4 40  1  0
  4 41  1  0
  5  8  2  0
  5 13  1  0
  5 31  1  0
  7 18  1  0
  7 25  2  0
  7 26  1  0
  8 19  1  0
  8 21  1  0
  9 24  1  0
  9 27  2  0
  9 28  1  0
 10 28  1  0
 10 42  1  0
 11 12  1  0
 11 16  2  0
 11 17  1  0
 12 18  2  0
 12 32  1  0
 13 14  2  0
 13 22  1  0
 14 15  1  0
 14 29  1  0
 15 19  2  0
 15 30  1  0
 16 26  1  0
 16 27  1  0
 17 24  2  0
 17 33  1  0
 18 23  1  0
 19 23  1  0
 20 26  1  0
 20 43  1  0
 20 44  1  0
 20 46  1  0
 28 45  1  0
 46 47  1  0
 46 51  1  0
 46 55  1  0
 47 48  1  0
 47 49  1  0
 47 50  1  0
 51 52  1  0
 51 53  1  0
 51 54  1  0
 55 56  1  0
M  END
>  <r_exp_dg>  (33) 
-10.79

>  <AmberAM1BCCCache>  (33) 
gASVgwQAAAAAAABdlCiMFm51bXB5Ll9jb3JlLm11bHRpYXJyYXmUjAZzY2FsYXKUk5SMBW51bXB5lIwFZHR5cGWUk5SMAmY4lImIh5RSlChLA4wBPJROTk5K/////0r/////SwB0lGJDCP65G2iHofi/lIaUUpRoA2gJQwgTFNHY71P4P5SGlFKUaANoCUMIExTR2O9T+D+UhpRSlGgDaAlDCP65G2iHofi/lIaUUpRoA2gJQwjvXbbQ6mwDwJSGlFKUaANoCUMIiTXnXzmpE8CUhpRSlGgDaAlDCIgPUvmOjyBAlIaUUpRoA2gJQwiRKs0R3oP7P5SGlFKUaANoCUMI8MADl9e8JUCUhpRSlGgDaAlDCEGoiJlVKwVAlIaUUpRoA2gJQwg+ZMMMF9cTwJSGlFKUaANoCUMIbM1rmEcnrj+UhpRSlGgDaAlDCPHbNRbkm/w/lIaUUpRoA2gJQwg5pzQdlIAAwJSGlFKUaANoCUMIH3zxakSE7L+UhpRSlGgDaAlDCMIr4GprjR1AlIaUUpRoA2gJQwhsq8yl3HUYQJSGlFKUaANoCUMIzZo5ce0f47+UhpRSlGgDaAlDCFUFeqA2tNY/lIaUUpRoA2gJQwiog3efx6DqP5SGlFKUaANoCUMIHlNbX1um+L+UhpRSlGgDaAlDCG3g0HviI/m/lIaUUpRoA2gJQwg70dUL/PMEwJSGlFKUaANoCUMIhuu4Kk3XIcCUhpRSlGgDaAlDCLeSCw3PNx3AlIaUUpRoA2gJQwjytPZUQq8TwJSGlFKUaANoCUMIBEsN0TkjI8CUhpRSlGgDaAlDCOI1zrZReCPAlIaUUpRoA2gJQwg1vVvdtdX9P5SGlFKUaANoCUMIQjo5dFJjAUCUhpRSlGgDaAlDCCQuuezqdP8/lIaUUpRoA2gJQwiVbsThu+3+P5SGlFKUaANoCUMIuhQwVpAs2j+UhpRSlGgDaAlDCO8D+THRjec/lIaUUpRoA2gJQwjvA/kx0Y3nP5SGlFKUaANoCUMIanVZZhkH4z+UhpRSlGgDaAlDCGp1WWYZB+M/lIaUUpRoA2gJQwhqdVlmGQfjP5SGlFKUaANoCUMIanVZZhkH4z+UhpRSlGgDaAlDCO8D+THRjec/lIaUUpRoA2gJQwjvA/kx0Y3nP5SGlFKUaANoCUMIBxQ/pmop8D+UhpRSlGgDaAlDCEhGvpQSM/A/lIaUUpRoA2gJQwhIRr6UEjPwP5SGlFKUaANoCUMI0Qg8ZlW8FECUhpRSlGgDaAlDCF9tmjKL5Po/lIaUUpRoA2gJQwh4ESa7WST1v5SGlFKUaANoCUMIXc0gUJ0q4j+UhpRSlGgDaAlDCF3NIFCdKuI/lIaUUpRoA2gJQwhdzSBQnSriP5SGlFKUaANoCUMIeBEmu1kk9b+UhpRSlGgDaAlDCF3NIFCdKuI/lIaUUpRoA2gJQwhdzSBQnSriP5SGlFKUaANoCUMIXc0gUJ0q4j+UhpRSlGgDaAlDCGJe8NH1PRzAlIaUUpRoA2gJQwgeAWGLKAATQJSGlFKUZS4=

>  <experimental dG reference units>  (33) 
kcal/mol

>  <experimental dG reference field>  (33) 
r_exp_dg

>  <kJ/mol experimental dG>  (33) 
-45.14536

>  <kcal/mol experimental dG>  (33) 
-10.79

$$$$
2s
     RDKit          3D

 54 57  0  0  1  0  0  0  0  0999 V2000
   26.9624    8.9283   30.3427 C   0  0  0  0  0  0  0  0  0  0  0  0
   28.3077    9.5761   30.7170 C   0  0  0  0  0  0  0  0  0  0  0  0
   28.4852    8.2364   32.7101 C   0  0  0  0  0  0  0  0  0  0  0  0
   27.1412    7.5439   32.4243 C   0  0  0  0  0  0  0  0  0  0  0  0
   15.9274   10.6044   31.6547 C   0  0  0  0  0  0  0  0  0  0  0  0
   29.0923    8.6600   31.4860 O   0  0  0  0  0  0  0  0  0  0  0  0
   21.3330   12.5360   31.2560 C   0  0  0  0  0  0  0  0  0  0  0  0
   17.2135   11.1316   31.7491 C   0  0  0  0  0  0  0  0  0  0  0  0
   23.8140    8.4300   31.0230 C   0  0  0  0  0  0  0  0  0  0  0  0
   26.2303    8.4709   31.6111 C   0  0  0  0  0  0  0  0  0  0  0  0
   21.4260    9.7450   30.7760 C   0  0  0  0  0  0  0  0  0  0  0  0
   20.2000   10.4070   30.6460 C   0  0  0  0  0  0  0  0  0  0  0  0
   15.1487   10.8638   30.5307 C   0  0  0  0  0  0  0  0  0  0  0  0
   15.6434   11.6708   29.5104 C   0  0  0  0  0  0  0  0  0  0  0  0
   16.9250   12.2124   29.6040 C   0  0  0  0  0  0  0  0  0  0  0  0
   22.5820   10.4440   31.1400 C   0  0  0  0  0  0  0  0  0  0  0  0
   21.5200    8.3710   30.5390 C   0  0  0  0  0  0  0  0  0  0  0  0
   20.1110   11.7830   30.8770 C   0  0  0  0  0  0  0  0  0  0  0  0
   17.7261   11.9276   30.7108 C   0  0  0  0  0  0  0  0  0  0  0  0
   23.8003   12.6051   31.6273 C   0  0  0  0  0  0  0  0  0  0  0  0
   17.9620   10.8580   32.8424 F   0  0  0  0  0  0  0  0  0  0  0  0
   13.9208   10.3209   30.4167 F   0  0  0  0  0  0  0  0  0  0  0  0
   18.9655   12.5219   30.7801 O   0  0  0  0  0  0  0  0  0  0  0  0
   22.6990    7.7390   30.6640 N   0  0  0  0  0  0  0  0  0  0  0  0
   21.2570   13.7670   31.4640 O   0  0  0  0  0  0  0  0  0  0  0  0
   22.5560   11.8400   31.3820 N   0  0  0  0  0  0  0  0  0  0  0  0
   23.7460    9.7650   31.2550 N   0  0  0  0  0  0  0  0  0  0  0  0
   25.0094    7.7600   31.2409 N   0  0  0  0  0  0  0  0  0  0  0  0
   15.0290   11.8694   28.6463 H   0  0  0  0  0  0  0  0  0  0  0  0
   17.3034   12.8456   28.8141 H   0  0  0  0  0  0  0  0  0  0  0  0
   15.5451    9.9727   32.4419 H   0  0  0  0  0  0  0  0  0  0  0  0
   19.3170    9.8555   30.3567 H   0  0  0  0  0  0  0  0  0  0  0  0
   20.6601    7.7844   30.2459 H   0  0  0  0  0  0  0  0  0  0  0  0
   27.1396    8.0774   29.6836 H   0  0  0  0  0  0  0  0  0  0  0  0
   26.3545    9.6399   29.7827 H   0  0  0  0  0  0  0  0  0  0  0  0
   28.1515   10.5012   31.2763 H   0  0  0  0  0  0  0  0  0  0  0  0
   28.8600    9.8529   29.8196 H   0  0  0  0  0  0  0  0  0  0  0  0
   29.1605    7.5485   33.2209 H   0  0  0  0  0  0  0  0  0  0  0  0
   28.3488    9.0903   33.3773 H   0  0  0  0  0  0  0  0  0  0  0  0
   26.6603    7.2581   33.3605 H   0  0  0  0  0  0  0  0  0  0  0  0
   27.3400    6.6225   31.8764 H   0  0  0  0  0  0  0  0  0  0  0  0
   25.9817    9.3468   32.2181 H   0  0  0  0  0  0  0  0  0  0  0  0
   23.5801   13.5075   32.2014 H   0  0  0  0  0  0  0  0  0  0  0  0
   24.4452   12.0094   32.2745 H   0  0  0  0  0  0  0  0  0  0  0  0
   25.0645    6.7731   31.0103 H   0  0  0  0  0  0  0  0  0  0  0  0
   24.5809   12.9985   30.3489 C   0  0  1  0  0  0  0  0  0  0  0  0
   24.8893   12.0815   29.8408 H   0  0  0  0  0  0  0  0  0  0  0  0
   23.8268   13.9098   29.3317 C   0  0  0  0  0  0  0  0  0  0  0  0
   24.3968   13.9690   28.4026 H   0  0  0  0  0  0  0  0  0  0  0  0
   22.8684   13.4706   29.0586 H   0  0  0  0  0  0  0  0  0  0  0  0
   25.7422   13.6870   30.7725 O   0  0  0  0  0  0  0  0  0  0  0  0
   25.4749   14.6195   30.8068 H   0  0  0  0  0  0  0  0  0  0  0  0
   23.6160   15.2431   29.7997 O   0  0  0  0  0  0  0  0  0  0  0  0
   22.9777   15.6867   29.2083 H   0  0  0  0  0  0  0  0  0  0  0  0
  1  2  1  0
  1 10  1  0
  1 34  1  0
  1 35  1  0
  2  6  1  0
  2 36  1  0
  2 37  1  0
  3  4  1  0
  3  6  1  0
  3 38  1  0
  3 39  1  0
  4 10  1  0
  4 40  1  0
  4 41  1  0
  5  8  2  0
  5 13  1  0
  5 31  1  0
  7 18  1  0
  7 25  2  0
  7 26  1  0
  8 19  1  0
  8 21  1  0
  9 24  1  0
  9 27  2  0
  9 28  1  0
 10 28  1  0
 10 42  1  0
 11 12  1  0
 11 16  2  0
 11 17  1  0
 12 18  2  0
 12 32  1  0
 13 14  2  0
 13 22  1  0
 14 15  1  0
 14 29  1  0
 15 19  2  0
 15 30  1  0
 16 26  1  0
 16 27  1  0
 17 24  2  0
 17 33  1  0
 18 23  1  0
 19 23  1  0
 20 26  1  0
 20 43  1  0
 20 44  1  0
 20 46  1  0
 28 45  1  0
 46 47  1  6
 46 48  1  0
 46 51  1  0
 48 49  1  0
 48 50  1  0
 48 53  1  0
 51 52  1  0
 53 54  1  0
M  END
>  <r_exp_dg>  (34) 
-11.11

>  <AmberAM1BCCCache>  (34) 
gASVXQQAAAAAAABdlCiMFm51bXB5Ll9jb3JlLm11bHRpYXJyYXmUjAZzY2FsYXKUk5SMBW51bXB5lIwFZHR5cGWUk5SMAmY4lImIh5RSlChLA4wBPJROTk5K/////0r/////SwB0lGJDCDZRhdZeq/i/lIaUUpRoA2gJQwg9jAMvgkL4P5SGlFKUaANoCUMIPYwDL4JC+D+UhpRSlGgDaAlDCDZRhdZeq/i/lIaUUpRoA2gJQwgB7xVYWScDwJSGlFKUaANoCUMIY/ZIwTuKE8CUhpRSlGgDaAlDCMw276pCmyBAlIaUUpRoA2gJQwidgQWzwJn7P5SGlFKUaANoCUMIC5sQQirMJUCUhpRSlGgDaAlDCGP7i2s9FwVAlIaUUpRoA2gJQwh7/b3sItcTwJSGlFKUaANoCUMIymaQ752urz+UhpRSlGgDaAlDCOpSWK41Afw/lIaUUpRoA2gJQwjKgt5PNy0AwJSGlFKUaANoCUMIY0s9apmD77+UhpRSlGgDaAlDCDHeEEyCcx1AlIaUUpRoA2gJQwjD60tayIgYQJSGlFKUaANoCUMINwAQlPwM47+UhpRSlGgDaAlDCPdtdvjw7No/lIaUUpRoA2gJQwgcr6Qjp/ftP5SGlFKUaANoCUMICsi6WkJO+L+UhpRSlGgDaAlDCOX6cFDdMfm/lIaUUpRoA2gJQwgz8INmP9sEwJSGlFKUaANoCUMI/OolFPLaIcCUhpRSlGgDaAlDCM9rOCteAR3AlIaUUpRoA2gJQwi4Nw/tT/8TwJSGlFKUaANoCUMInJICOjcxI8CUhpRSlGgDaAlDCGCY1DcIeSPAlIaUUpRoA2gJQwh+LF87JdT9P5SGlFKUaANoCUMInM8wsJkAAUCUhpRSlGgDaAlDCDAnYH3Ef/8/lIaUUpRoA2gJQwgcpduEPNr+P5SGlFKUaANoCUMI4+vx/2hH2j+UhpRSlGgDaAlDCC/qHiiS8eY/lIaUUpRoA2gJQwgv6h4okvHmP5SGlFKUaANoCUMILPfezy+C4z+UhpRSlGgDaAlDCCz33s8vguM/lIaUUpRoA2gJQwgs997PL4LjP5SGlFKUaANoCUMILPfezy+C4z+UhpRSlGgDaAlDCC/qHiiS8eY/lIaUUpRoA2gJQwgv6h4okvHmP5SGlFKUaANoCUMIXjzKQsKm8D+UhpRSlGgDaAlDCE0LWxJbJvE/lIaUUpRoA2gJQwhNC1sSWybxP5SGlFKUaANoCUMIVfnkuLPIFECUhpRSlGgDaAlDCFVPDoOD5fY/lIaUUpRoA2gJQwiGFgoBQaLmP5SGlFKUaANoCUMIKUvroIMa8j+UhpRSlGgDaAlDCA3JrDFNbuI/lIaUUpRoA2gJQwgNyawxTW7iP5SGlFKUaANoCUMIZptCFodrHMCUhpRSlGgDaAlDCIndGGq32RNAlIaUUpRoA2gJQwigSNHRz80cwJSGlFKUaANoCUMIR1qzW0FAE0CUhpRSlGUu

>  <experimental dG reference units>  (34) 
kcal/mol

>  <experimental dG reference field>  (34) 
r_exp_dg

>  <kJ/mol experimental dG>  (34) 
-46.48424

>  <kcal/mol experimental dG>  (34) 
-11.11

$$$$
