26charg
     RDKit          3D

 45 47  0  0  1  0  0  0  0  0999 V2000
   44.5087   14.2799    0.4458 S   0  0  0  0  0  0  0  0  0  0  0  0
   44.6724   15.6521    1.5151 C   0  0  0  0  0  0  0  0  0  0  0  0
   45.4942   15.3357    2.5929 C   0  0  0  0  0  0  0  0  0  0  0  0
   45.9327   14.0054    2.5686 C   0  0  0  0  0  0  0  0  0  0  0  0
   45.5470   13.2994    1.4352 C   0  0  0  0  0  0  0  0  0  0  0  0
   43.9966   16.9101    1.1914 C   0  0  0  0  0  0  0  0  0  0  0  0
   43.3921   16.9804    0.1004 O   0  0  0  0  0  0  0  0  0  0  0  0
   44.0754   17.8442    2.0228 O   0  0  0  0  0  0  0  0  0  0  0  0
   45.8873   11.9043    1.0226 C   0  0  0  0  0  0  0  0  0  0  0  0
   47.1912   11.4197    1.1894 C   0  0  0  0  0  0  0  0  0  0  0  0
   47.5202   10.1013    0.8651 C   0  0  0  0  0  0  0  0  0  0  0  0
   46.5318    9.2669    0.3262 C   0  0  0  0  0  0  0  0  0  0  0  0
   45.2354    9.7445    0.1362 C   0  0  0  0  0  0  0  0  0  0  0  0
   44.9145   11.0540    0.4905 C   0  0  0  0  0  0  0  0  0  0  0  0
   46.9337   13.2378    3.9786 Br  0  0  0  0  0  0  0  0  0  0  0  0
   45.7976   16.2054    3.6038 O   0  0  0  0  0  0  0  0  0  0  0  0
   47.0769   16.8148    3.4399 C   0  0  0  0  0  0  0  0  0  0  0  0
   47.3906   17.6438    4.6904 C   0  0  0  0  0  0  0  0  0  0  0  0
   48.5187   18.1810    4.7214 O   0  0  0  0  0  0  0  0  0  0  0  0
   46.5366   17.7279    5.6063 O   0  0  0  0  0  0  0  0  0  0  0  0
   48.8387    9.6745    1.1078 N   0  0  0  0  0  0  0  0  0  0  0  0
   49.1257    8.2782    1.4384 C   0  0  0  0  0  0  0  0  0  0  0  0
   50.6645    8.1073    1.5183 C   0  0  0  0  0  0  0  0  0  0  0  0
   51.0793    6.7381    2.0910 C   0  0  0  0  0  0  0  0  0  0  0  0
   50.3594    6.4580    3.3545 N   0  0  0  0  0  0  0  0  0  0  0  0
   48.8823    6.5385    3.2997 C   0  0  0  0  0  0  0  0  0  0  0  0
   48.4391    7.9131    2.7808 C   0  0  0  0  0  0  0  0  0  0  0  0
   47.9504   12.0732    1.5923 H   0  0  0  0  0  0  0  0  0  0  0  0
   46.7528    8.2473    0.0505 H   0  0  0  0  0  0  0  0  0  0  0  0
   44.4770    9.0946   -0.2738 H   0  0  0  0  0  0  0  0  0  0  0  0
   43.9017   11.4033    0.3584 H   0  0  0  0  0  0  0  0  0  0  0  0
   47.0819   17.4695    2.5660 H   0  0  0  0  0  0  0  0  0  0  0  0
   47.8642   16.0704    3.3056 H   0  0  0  0  0  0  0  0  0  0  0  0
   49.4094   10.3360    1.6168 H   0  0  0  0  0  0  0  0  0  0  0  0
   48.7423    7.6326    0.6480 H   0  0  0  0  0  0  0  0  0  0  0  0
   51.0922    8.8778    2.1605 H   0  0  0  0  0  0  0  0  0  0  0  0
   51.1124    8.2471    0.5337 H   0  0  0  0  0  0  0  0  0  0  0  0
   52.1525    6.7104    2.2826 H   0  0  0  0  0  0  0  0  0  0  0  0
   50.8610    5.9254    1.3971 H   0  0  0  0  0  0  0  0  0  0  0  0
   48.4747    6.3615    4.2957 H   0  0  0  0  0  0  0  0  0  0  0  0
   48.5231    5.7266    2.6660 H   0  0  0  0  0  0  0  0  0  0  0  0
   47.3546    7.9174    2.6730 H   0  0  0  0  0  0  0  0  0  0  0  0
   48.6790    8.6633    3.5366 H   0  0  0  0  0  0  0  0  0  0  0  0
   50.5747    5.5212    3.6647 H   0  0  0  0  0  0  0  0  0  0  0  0
   50.6862    7.1070    4.0560 H   0  0  0  0  0  0  0  0  0  0  0  0
  1  2  1  0
  1  5  1  0
  2  3  2  0
  2  6  1  0
  3  4  1  0
  3 16  1  0
  4  5  2  0
  4 15  1  0
  5  9  1  0
  6  7  1  0
  6  8  2  0
  9 10  2  0
  9 14  1  0
 10 11  1  0
 10 28  1  0
 11 12  2  0
 11 21  1  0
 12 13  1  0
 12 29  1  0
 13 14  2  0
 13 30  1  0
 14 31  1  0
 16 17  1  0
 17 18  1  0
 17 32  1  0
 17 33  1  0
 18 19  1  0
 18 20  2  0
 21 22  1  0
 21 34  1  0
 22 23  1  0
 22 27  1  0
 22 35  1  0
 23 24  1  0
 23 36  1  0
 23 37  1  0
 24 25  1  0
 24 38  1  0
 24 39  1  0
 25 26  1  0
 25 44  1  0
 25 45  1  0
 26 27  1  0
 26 40  1  0
 26 41  1  0
 27 42  1  0
 27 43  1  0
M  CHG  3   7  -1  19  -1  25   1
M  END
>  <r_exp_dg>  (1) 
-7.44

>  <experimental dG reference units>  (1) 
kcal/mol

>  <experimental dG reference field>  (1) 
r_exp_dg

>  <kJ/mol experimental dG>  (1) 
-31.128960000000003

>  <kcal/mol experimental dG>  (1) 
-7.44

>  <AmberAM1BCCCache>  (1) 
gASVsgMAAAAAAABdlCiMFm51bXB5Ll9jb3JlLm11bHRpYXJyYXmUjAZzY2FsYXKUk5SMBW51bXB5lIwFZHR5cGWUk5SMAmY4lImIh5RSlChLA4wBPJROTk5K/////0r/////SwB0lGJDCLgO2/9AsfY/lIaUUpRoA2gJQwgK8pVZ6YYCwJSGlFKUaANoCUMIfulPmxY4+j+UhpRSlGgDaAlDCJv9xM217OS/lIaUUpRoA2gJQwiuij70LCjyv5SGlFKUaANoCUMIb3gbviBbJkCUhpRSlGgDaAlDCIXcTRfvoCDAlIaUUpRoA2gJQwiF3E0X76AgwJSGlFKUaANoCUMIvjIBkK201z+UhpRSlGgDaAlDCPCL+tXiW/6/lIaUUpRoA2gJQwixljdtd1r1P5SGlFKUaANoCUMIusIkVXNUAMCUhpRSlGgDaAlDCOtuuz5zTvW/lIaUUpRoA2gJQwiAO6TTH2b5v5SGlFKUaANoCUMIL7BXgewN6r+UhpRSlGgDaAlDCNZHTqQ/Zg3AlIaUUpRoA2gJQwhucd+wOkrZP5SGlFKUaANoCUMINTaaW8npJECUhpRSlGgDaAlDCNVUF4lj7yDAlIaUUpRoA2gJQwjVVBeJY+8gwJSGlFKUaANoCUMIiaVK0Y7HIMCUhpRSlGgDaAlDCP56IIBA9wFAlIaUUpRoA2gJQwg6q9czJPz2v5SGlFKUaANoCUMIPkwhpCJo/D+UhpRSlGgDaAlDCAUqli+AvyfAlIaUUpRoA2gJQwg+TCGkImj8P5SGlFKUaANoCUMIOqvXMyT89r+UhpRSlGgDaAlDCIxERsn1q/o/lIaUUpRoA2gJQwiJAE/5F0L3P5SGlFKUaANoCUMIsiuIZCuU9z+UhpRSlGgDaAlDCB6z4axOY/w/lIaUUpRoA2gJQwjxHSfyDxLvP5SGlFKUaANoCUMI8R0n8g8S7z+UhpRSlGgDaAlDCBoSQyhn3BFAlIaUUpRoA2gJQwhmS5BWeiHnP5SGlFKUaANoCUMIHv9x7RkM5D+UhpRSlGgDaAlDCB7/ce0ZDOQ/lIaUUpRoA2gJQwiEC4iGvILhP5SGlFKUaANoCUMIhAuIhryC4T+UhpRSlGgDaAlDCIQLiIa8guE/lIaUUpRoA2gJQwiEC4iGvILhP5SGlFKUaANoCUMIHv9x7RkM5D+UhpRSlGgDaAlDCB7/ce0ZDOQ/lIaUUpRoA2gJQwgoPjfKvSoTQJSGlFKUaANoCUMIKD43yr0qE0CUhpRSlGUu

$$$$
27
     RDKit          3D

 49 51  0  0  1  0  0  0  0  0999 V2000
   44.5087   14.2799    0.4458 S   0  0  0  0  0  0  0  0  0  0  0  0
   44.6724   15.6521    1.5151 C   0  0  0  0  0  0  0  0  0  0  0  0
   45.4942   15.3357    2.5929 C   0  0  0  0  0  0  0  0  0  0  0  0
   45.9327   14.0054    2.5686 C   0  0  0  0  0  0  0  0  0  0  0  0
   45.5470   13.2994    1.4352 C   0  0  0  0  0  0  0  0  0  0  0  0
   43.9966   16.9101    1.1914 C   0  0  0  0  0  0  0  0  0  0  0  0
   43.3921   16.9804    0.1004 O   0  0  0  0  0  0  0  0  0  0  0  0
   44.0754   17.8442    2.0228 O   0  0  0  0  0  0  0  0  0  0  0  0
   45.8873   11.9043    1.0226 C   0  0  0  0  0  0  0  0  0  0  0  0
   47.1912   11.4197    1.1894 C   0  0  0  0  0  0  0  0  0  0  0  0
   47.5202   10.1013    0.8651 C   0  0  0  0  0  0  0  0  0  0  0  0
   46.5318    9.2669    0.3262 C   0  0  0  0  0  0  0  0  0  0  0  0
   45.2354    9.7445    0.1362 C   0  0  0  0  0  0  0  0  0  0  0  0
   44.9145   11.0540    0.4905 C   0  0  0  0  0  0  0  0  0  0  0  0
   46.9337   13.2378    3.9786 Br  0  0  0  0  0  0  0  0  0  0  0  0
   45.7976   16.2054    3.6038 O   0  0  0  0  0  0  0  0  0  0  0  0
   47.0769   16.8148    3.4399 C   0  0  0  0  0  0  0  0  0  0  0  0
   47.3906   17.6438    4.6904 C   0  0  0  0  0  0  0  0  0  0  0  0
   48.5187   18.1810    4.7214 O   0  0  0  0  0  0  0  0  0  0  0  0
   46.5366   17.7279    5.6063 O   0  0  0  0  0  0  0  0  0  0  0  0
   48.8387    9.6745    1.1078 N   0  0  0  0  0  0  0  0  0  0  0  0
   49.1257    8.2782    1.4384 C   0  0  0  0  0  0  0  0  0  0  0  0
   50.6645    8.1073    1.5183 C   0  0  0  0  0  0  0  0  0  0  0  0
   51.0793    6.7381    2.0910 C   0  0  0  0  0  0  0  0  0  0  0  0
   50.3594    6.4580    3.3545 N   0  0  0  0  0  0  0  0  0  0  0  0
   48.8823    6.5385    3.2997 C   0  0  0  0  0  0  0  0  0  0  0  0
   48.4391    7.9131    2.7808 C   0  0  0  0  0  0  0  0  0  0  0  0
   47.9504   12.0732    1.5923 H   0  0  0  0  0  0  0  0  0  0  0  0
   46.7528    8.2473    0.0505 H   0  0  0  0  0  0  0  0  0  0  0  0
   44.4770    9.0946   -0.2738 H   0  0  0  0  0  0  0  0  0  0  0  0
   43.9017   11.4033    0.3584 H   0  0  0  0  0  0  0  0  0  0  0  0
   47.0819   17.4695    2.5660 H   0  0  0  0  0  0  0  0  0  0  0  0
   47.8642   16.0704    3.3056 H   0  0  0  0  0  0  0  0  0  0  0  0
   49.4094   10.3360    1.6168 H   0  0  0  0  0  0  0  0  0  0  0  0
   48.7423    7.6326    0.6480 H   0  0  0  0  0  0  0  0  0  0  0  0
   51.0922    8.8778    2.1605 H   0  0  0  0  0  0  0  0  0  0  0  0
   51.1124    8.2471    0.5337 H   0  0  0  0  0  0  0  0  0  0  0  0
   52.1525    6.7104    2.2826 H   0  0  0  0  0  0  0  0  0  0  0  0
   50.8610    5.9254    1.3971 H   0  0  0  0  0  0  0  0  0  0  0  0
   48.4747    6.3615    4.2957 H   0  0  0  0  0  0  0  0  0  0  0  0
   48.5231    5.7266    2.6660 H   0  0  0  0  0  0  0  0  0  0  0  0
   47.3546    7.9174    2.6730 H   0  0  0  0  0  0  0  0  0  0  0  0
   48.6790    8.6633    3.5366 H   0  0  0  0  0  0  0  0  0  0  0  0
   51.1382    6.0600    4.8194 C   0  0  0  0  0  0  0  0  0  0  0  0
   51.6516    6.8943    5.5263 O   0  0  0  0  0  0  0  0  0  0  0  0
   51.1005    4.5656    5.1055 C   0  0  0  0  0  0  0  0  0  0  0  0
   51.6224    4.3579    6.0732 H   0  0  0  0  0  0  0  0  0  0  0  0
   50.0367    4.2259    5.1750 H   0  0  0  0  0  0  0  0  0  0  0  0
   51.6148    4.0145    4.2786 H   0  0  0  0  0  0  0  0  0  0  0  0
  1  2  1  0
  1  5  1  0
  2  3  2  0
  2  6  1  0
  3  4  1  0
  3 16  1  0
  4  5  2  0
  4 15  1  0
  5  9  1  0
  6  7  1  0
  6  8  2  0
  9 10  2  0
  9 14  1  0
 10 11  1  0
 10 28  1  0
 11 12  2  0
 11 21  1  0
 12 13  1  0
 12 29  1  0
 13 14  2  0
 13 30  1  0
 14 31  1  0
 16 17  1  0
 17 18  1  0
 17 32  1  0
 17 33  1  0
 18 19  1  0
 18 20  2  0
 21 22  1  0
 21 34  1  0
 22 23  1  0
 22 27  1  0
 22 35  1  0
 23 24  1  0
 23 36  1  0
 23 37  1  0
 24 25  1  0
 24 38  1  0
 24 39  1  0
 25 26  1  0
 25 44  1  0
 26 27  1  0
 26 40  1  0
 26 41  1  0
 27 42  1  0
 27 43  1  0
 44 45  2  0
 44 46  1  0
 46 47  1  0
 46 48  1  0
 46 49  1  0
M  CHG  2   7  -1  19  -1
M  END
>  <r_exp_dg>  (2) 
-9.23

>  <experimental dG reference units>  (2) 
kcal/mol

>  <experimental dG reference field>  (2) 
r_exp_dg

>  <kJ/mol experimental dG>  (2) 
-38.618320000000004

>  <kcal/mol experimental dG>  (2) 
-9.23

>  <AmberAM1BCCCache>  (2) 
gASV/gMAAAAAAABdlCiMFm51bXB5Ll9jb3JlLm11bHRpYXJyYXmUjAZzY2FsYXKUk5SMBW51bXB5lIwFZHR5cGWUk5SMAmY4lImIh5RSlChLA4wBPJROTk5K/////0r/////SwB0lGJDCMMUuUVJ7tQ/lIaUUpRoA2gJQwiJO7rtlBcAwJSGlFKUaANoCUMI1JwuPPQ9+j+UhpRSlGgDaAlDCCYN7Bf7KeC/lIaUUpRoA2gJQwiYDx97ZS/+v5SGlFKUaANoCUMI4+3b1lYkJkCUhpRSlGgDaAlDCK6T3/VhRiPAlIaUUpRoA2gJQwiuk9/1YUYjwJSGlFKUaANoCUMIMScs2g/C7j+UhpRSlGgDaAlDCH6Papjf0wDAlIaUUpRoA2gJQwgTe2tNzGDxP5SGlFKUaANoCUMIlokFKzkQAcCUhpRSlGgDaAlDCGsl9Ck2MPe/lIaUUpRoA2gJQwgM74U7blv5v5SGlFKUaANoCUMI7yhO0r328r+UhpRSlGgDaAlDCGjCEBGlDAvAlIaUUpRoA2gJQwhjHX4Q326wP5SGlFKUaANoCUMIdscmw/uhJUCUhpRSlGgDaAlDCBjwgKtKDiTAlIaUUpRoA2gJQwgY8ICrSg4kwJSGlFKUaANoCUMIHWDa6vmbIMCUhpRSlGgDaAlDCF4QF+5HowFAlIaUUpRoA2gJQwipmyFPeY72v5SGlFKUaANoCUMIxvqgIYBe8D+UhpRSlGgDaAlDCHUr+IplyxXAlIaUUpRoA2gJQwjG+qAhgF7wP5SGlFKUaANoCUMIqZshT3mO9r+UhpRSlGgDaAlDCOH3JGrTsfo/lIaUUpRoA2gJQwhgg9t/kSH1P5SGlFKUaANoCUMIpn5XKNlR9T+UhpRSlGgDaAlDCPXKvip8fPw/lIaUUpRoA2gJQwjnExvRu0vkP5SGlFKUaANoCUMI5xMb0btL5D+UhpRSlGgDaAlDCGHdLuphrBFAlIaUUpRoA2gJQwjWSMtjLUrnP5SGlFKUaANoCUMI2WIhRaNA5j+UhpRSlGgDaAlDCNliIUWjQOY/lIaUUpRoA2gJQwiXm1FfR/3jP5SGlFKUaANoCUMIl5tRX0f94z+UhpRSlGgDaAlDCJebUV9H/eM/lIaUUpRoA2gJQwiXm1FfR/3jP5SGlFKUaANoCUMI2WIhRaNA5j+UhpRSlGgDaAlDCNliIUWjQOY/lIaUUpRoA2gJQwgm5xLZ+88eQJSGlFKUaANoCUMIQCgNW8sRHcCUhpRSlGgDaAlDCCdw+wcZCQDAlIaUUpRoA2gJQwhipCFKNqnmP5SGlFKUaANoCUMIYqQhSjap5j+UhpRSlGgDaAlDCGKkIUo2qeY/lIaUUpRlLg==

$$$$
32
     RDKit          3D

 60 63  0  0  1  0  0  0  0  0999 V2000
   44.5087   14.2799    0.4458 S   0  0  0  0  0  0  0  0  0  0  0  0
   44.6724   15.6521    1.5151 C   0  0  0  0  0  0  0  0  0  0  0  0
   45.4942   15.3357    2.5929 C   0  0  0  0  0  0  0  0  0  0  0  0
   45.9327   14.0054    2.5686 C   0  0  0  0  0  0  0  0  0  0  0  0
   45.5470   13.2994    1.4352 C   0  0  0  0  0  0  0  0  0  0  0  0
   43.9966   16.9101    1.1914 C   0  0  0  0  0  0  0  0  0  0  0  0
   43.3921   16.9804    0.1004 O   0  0  0  0  0  0  0  0  0  0  0  0
   44.0754   17.8442    2.0228 O   0  0  0  0  0  0  0  0  0  0  0  0
   45.8873   11.9043    1.0226 C   0  0  0  0  0  0  0  0  0  0  0  0
   47.1912   11.4197    1.1894 C   0  0  0  0  0  0  0  0  0  0  0  0
   47.5202   10.1013    0.8651 C   0  0  0  0  0  0  0  0  0  0  0  0
   46.5318    9.2669    0.3262 C   0  0  0  0  0  0  0  0  0  0  0  0
   45.2354    9.7445    0.1362 C   0  0  0  0  0  0  0  0  0  0  0  0
   44.9145   11.0540    0.4905 C   0  0  0  0  0  0  0  0  0  0  0  0
   46.9337   13.2378    3.9786 Br  0  0  0  0  0  0  0  0  0  0  0  0
   45.7976   16.2054    3.6038 O   0  0  0  0  0  0  0  0  0  0  0  0
   47.0769   16.8148    3.4399 C   0  0  0  0  0  0  0  0  0  0  0  0
   47.3906   17.6438    4.6904 C   0  0  0  0  0  0  0  0  0  0  0  0
   48.5187   18.1810    4.7214 O   0  0  0  0  0  0  0  0  0  0  0  0
   46.5366   17.7279    5.6063 O   0  0  0  0  0  0  0  0  0  0  0  0
   48.8387    9.6745    1.1078 N   0  0  0  0  0  0  0  0  0  0  0  0
   49.1257    8.2782    1.4384 C   0  0  0  0  0  0  0  0  0  0  0  0
   50.6645    8.1073    1.5183 C   0  0  0  0  0  0  0  0  0  0  0  0
   51.0793    6.7381    2.0910 C   0  0  0  0  0  0  0  0  0  0  0  0
   50.3594    6.4580    3.3545 N   0  0  0  0  0  0  0  0  0  0  0  0
   48.8823    6.5385    3.2997 C   0  0  0  0  0  0  0  0  0  0  0  0
   48.4391    7.9131    2.7808 C   0  0  0  0  0  0  0  0  0  0  0  0
   51.1167    5.4685    4.5967 S   0  0  0  0  0  0  0  0  0  0  0  0
   50.2797    5.5548    5.7948 O   0  0  0  0  0  0  0  0  0  0  0  0
   52.5388    5.8261    4.6628 O   0  0  0  0  0  0  0  0  0  0  0  0
   50.9745    3.7099    3.9410 C   0  0  0  0  0  0  0  0  0  0  0  0
   51.3646    2.7345    5.0334 C   0  0  0  0  0  0  0  0  0  0  0  0
   52.7085    2.4001    5.2138 C   0  0  0  0  0  0  0  0  0  0  0  0
   53.0771    1.5613    6.2604 C   0  0  0  0  0  0  0  0  0  0  0  0
   52.0993    1.0606    7.1156 C   0  0  0  0  0  0  0  0  0  0  0  0
   50.7556    1.3814    6.9355 C   0  0  0  0  0  0  0  0  0  0  0  0
   50.3863    2.2204    5.8887 C   0  0  0  0  0  0  0  0  0  0  0  0
   47.9504   12.0732    1.5923 H   0  0  0  0  0  0  0  0  0  0  0  0
   46.7528    8.2473    0.0505 H   0  0  0  0  0  0  0  0  0  0  0  0
   44.4770    9.0946   -0.2738 H   0  0  0  0  0  0  0  0  0  0  0  0
   43.9017   11.4033    0.3584 H   0  0  0  0  0  0  0  0  0  0  0  0
   47.0819   17.4695    2.5660 H   0  0  0  0  0  0  0  0  0  0  0  0
   47.8642   16.0704    3.3056 H   0  0  0  0  0  0  0  0  0  0  0  0
   49.4094   10.3360    1.6168 H   0  0  0  0  0  0  0  0  0  0  0  0
   48.7423    7.6326    0.6480 H   0  0  0  0  0  0  0  0  0  0  0  0
   51.0922    8.8778    2.1605 H   0  0  0  0  0  0  0  0  0  0  0  0
   51.1124    8.2471    0.5337 H   0  0  0  0  0  0  0  0  0  0  0  0
   52.1525    6.7104    2.2826 H   0  0  0  0  0  0  0  0  0  0  0  0
   50.8610    5.9254    1.3971 H   0  0  0  0  0  0  0  0  0  0  0  0
   48.4747    6.3615    4.2957 H   0  0  0  0  0  0  0  0  0  0  0  0
   48.5231    5.7266    2.6660 H   0  0  0  0  0  0  0  0  0  0  0  0
   47.3546    7.9174    2.6730 H   0  0  0  0  0  0  0  0  0  0  0  0
   48.6790    8.6633    3.5366 H   0  0  0  0  0  0  0  0  0  0  0  0
   51.6159    3.6211    3.0643 H   0  0  0  0  0  0  0  0  0  0  0  0
   49.9420    3.5568    3.6268 H   0  0  0  0  0  0  0  0  0  0  0  0
   53.4697    2.8056    4.5620 H   0  0  0  0  0  0  0  0  0  0  0  0
   54.1160    1.3061    6.4158 H   0  0  0  0  0  0  0  0  0  0  0  0
   52.3923    0.4142    7.9269 H   0  0  0  0  0  0  0  0  0  0  0  0
   50.0065    0.9844    7.6045 H   0  0  0  0  0  0  0  0  0  0  0  0
   49.3464    2.4834    5.7580 H   0  0  0  0  0  0  0  0  0  0  0  0
  1  2  1  0
  1  5  1  0
  2  3  2  0
  2  6  1  0
  3  4  1  0
  3 16  1  0
  4  5  2  0
  4 15  1  0
  5  9  1  0
  6  7  1  0
  6  8  2  0
  9 10  2  0
  9 14  1  0
 10 11  1  0
 10 38  1  0
 11 12  2  0
 11 21  1  0
 12 13  1  0
 12 39  1  0
 13 14  2  0
 13 40  1  0
 14 41  1  0
 16 17  1  0
 17 18  1  0
 17 42  1  0
 17 43  1  0
 18 19  1  0
 18 20  2  0
 21 22  1  0
 21 44  1  0
 22 23  1  0
 22 27  1  0
 22 45  1  0
 23 24  1  0
 23 46  1  0
 23 47  1  0
 24 25  1  0
 24 48  1  0
 24 49  1  0
 25 26  1  0
 25 28  1  0
 26 27  1  0
 26 50  1  0
 26 51  1  0
 27 52  1  0
 27 53  1  0
 28 29  2  0
 28 30  2  0
 28 31  1  0
 31 32  1  0
 31 54  1  0
 31 55  1  0
 32 33  2  0
 32 37  1  0
 33 34  1  0
 33 56  1  0
 34 35  2  0
 34 57  1  0
 35 36  1  0
 35 58  1  0
 36 37  2  0
 36 59  1  0
 37 60  1  0
M  CHG  2   7  -1  19  -1
M  END
>  <r_exp_dg>  (3) 
-11.53

>  <experimental dG reference units>  (3) 
kcal/mol

>  <experimental dG reference field>  (3) 
r_exp_dg

>  <kJ/mol experimental dG>  (3) 
-48.24152

>  <kcal/mol experimental dG>  (3) 
-11.53

>  <AmberAM1BCCCache>  (3) 
gASVzwQAAAAAAABdlCiMFm51bXB5Ll9jb3JlLm11bHRpYXJyYXmUjAZzY2FsYXKUk5SMBW51bXB5lIwFZHR5cGWUk5SMAmY4lImIh5RSlChLA4wBPJROTk5K/////0r/////SwB0lGJDCNm5lkv6W9Q/lIaUUpRoA2gJQwgj8IAB5wwAwJSGlFKUaANoCUMI5i4dvZeD+j+UhpRSlGgDaAlDCBBEBUSTEuC/lIaUUpRoA2gJQwhVb6TzmHr+v5SGlFKUaANoCUMICYFi1/0jJkCUhpRSlGgDaAlDCOYjWxgSRSPAlIaUUpRoA2gJQwjmI1sYEkUjwJSGlFKUaANoCUMIsWch6agr7j+UhpRSlGgDaAlDCNcRsr2JvwDAlIaUUpRoA2gJQwiHIpKcH+PuP5SGlFKUaANoCUMIWoNbixROAMCUhpRSlGgDaAlDCHCA9Uqxq/e/lIaUUpRoA2gJQwhPzV9yZ7D4v5SGlFKUaANoCUMIP2IeN5a/8r+UhpRSlGgDaAlDCE8R+DG5+grAlIaUUpRoA2gJQwgiiqeXnMSxP5SGlFKUaANoCUMI40B9wdeiJUCUhpRSlGgDaAlDCGOQWq85DCTAlIaUUpRoA2gJQwhjkFqvOQwkwJSGlFKUaANoCUMIVym+nfV/IMCUhpRSlGgDaAlDCLu8q3V75QFAlIaUUpRoA2gJQwgTAzkJl4D0v5SGlFKUaANoCUMIc1HWjYQnBUCUhpRSlGgDaAlDCD87ye4AXCPAlIaUUpRoA2gJQwhzUdaNhCcFQJSGlFKUaANoCUMIEwM5CZeA9L+UhpRSlGgDaAlDCC2Gi7mN+DBAlIaUUpRoA2gJQwjygFYABqUewJSGlFKUaANoCUMI8oBWAAalHsCUhpRSlGgDaAlDCJXIfAojwQfAlIaUUpRoA2gJQwhuVhJ9YXflv5SGlFKUaANoCUMI7Xn7hXLj9b+UhpRSlGgDaAlDCLk3w7xdh/i/lIaUUpRoA2gJQwhvZp9pO7X4v5SGlFKUaANoCUMIuTfDvF2H+L+UhpRSlGgDaAlDCO15+4Vy4/W/lIaUUpRoA2gJQwiILFuRu5v6P5SGlFKUaANoCUMIuBBGqXyX9T+UhpRSlGgDaAlDCFZFh8MAifU/lIaUUpRoA2gJQwgClLDxf5v8P5SGlFKUaANoCUMIGcLwjGpw5D+UhpRSlGgDaAlDCBnC8IxqcOQ/lIaUUpRoA2gJQwgJBv4WjJMRQJSGlFKUaANoCUMIkJT19Xo25D+UhpRSlGgDaAlDCGXXC7BqrOc/lIaUUpRoA2gJQwhl1wuwaqznP5SGlFKUaANoCUMIYfEY+J2N4j+UhpRSlGgDaAlDCGHxGPidjeI/lIaUUpRoA2gJQwhh8Rj4nY3iP5SGlFKUaANoCUMIYfEY+J2N4j+UhpRSlGgDaAlDCGXXC7BqrOc/lIaUUpRoA2gJQwhl1wuwaqznP5SGlFKUaANoCUMIJ1FRnk0Q9T+UhpRSlGgDaAlDCCdRUZ5NEPU/lIaUUpRoA2gJQwgzr+fo44X7P5SGlFKUaANoCUMI2DErp8la+D+UhpRSlGgDaAlDCBDfWxJtkvc/lIaUUpRoA2gJQwjYMSunyVr4P5SGlFKUaANoCUMIM6/n6OOF+z+UhpRSlGUu

$$$$
