3a
     RDKit          3D

 39 41  0  0  0  0  0  0  0  0999 V2000
  -14.9816  -16.8848  -26.7516 N   0  0  0  0  0  0  0  0  0  0  0  0
  -15.4574  -17.7370  -25.9019 C   0  0  0  0  0  0  0  0  0  0  0  0
  -16.1716  -17.2489  -24.8288 N   0  0  0  0  0  0  0  0  0  0  0  0
  -16.4816  -15.9693  -24.5201 C   0  0  0  0  0  0  0  0  0  0  0  0
  -17.2339  -15.7049  -23.5851 O   0  0  0  0  0  0  0  0  0  0  0  0
  -15.3028  -19.1965  -26.0227 C   0  0  0  0  0  0  0  0  0  0  0  0
  -15.7965  -20.0495  -25.0297 C   0  0  0  0  0  0  0  0  0  0  0  0
  -15.5658  -21.4095  -25.0956 C   0  0  0  0  0  0  0  0  0  0  0  0
  -14.8063  -21.9515  -26.1302 C   0  0  0  0  0  0  0  0  0  0  0  0
  -14.3983  -21.1196  -27.1811 C   0  0  0  0  0  0  0  0  0  0  0  0
  -14.6397  -19.7519  -27.1232 C   0  0  0  0  0  0  0  0  0  0  0  0
  -14.3680  -23.4201  -26.0124 C   0  0  0  0  0  0  0  0  0  0  0  0
  -15.1526  -15.5000  -26.5810 C   0  0  0  0  0  0  0  0  0  0  0  0
  -15.8439  -14.9900  -25.4754 C   0  0  0  0  0  0  0  0  0  0  0  0
  -15.9352  -13.6164  -25.2666 C   0  0  0  0  0  0  0  0  0  0  0  0
  -15.3329  -12.7479  -26.1806 C   0  0  0  0  0  0  0  0  0  0  0  0
  -14.6736  -13.2481  -27.3060 C   0  0  0  0  0  0  0  0  0  0  0  0
  -14.5950  -14.6270  -27.5156 C   0  0  0  0  0  0  0  0  0  0  0  0
  -13.4015  -23.7780  -27.1663 C   0  0  0  0  0  0  0  0  0  0  0  0
  -15.6399  -24.3094  -26.0018 C   0  0  0  0  0  0  0  0  0  0  0  0
  -13.6628  -23.7212  -24.6935 C   0  0  0  0  0  0  0  0  0  0  0  0
  -16.6288  -17.9244  -24.2312 H   0  0  0  0  0  0  0  0  0  0  0  0
  -16.3148  -19.6807  -24.1585 H   0  0  0  0  0  0  0  0  0  0  0  0
  -15.9160  -22.0334  -24.2877 H   0  0  0  0  0  0  0  0  0  0  0  0
  -13.8381  -21.4999  -28.0219 H   0  0  0  0  0  0  0  0  0  0  0  0
  -14.2700  -19.1240  -27.9229 H   0  0  0  0  0  0  0  0  0  0  0  0
  -16.4540  -13.2266  -24.4025 H   0  0  0  0  0  0  0  0  0  0  0  0
  -15.3779  -11.6800  -26.0215 H   0  0  0  0  0  0  0  0  0  0  0  0
  -14.2191  -12.5644  -28.0101 H   0  0  0  0  0  0  0  0  0  0  0  0
  -14.0707  -15.0162  -28.3762 H   0  0  0  0  0  0  0  0  0  0  0  0
  -12.6996  -22.9672  -27.3675 H   0  0  0  0  0  0  0  0  0  0  0  0
  -13.9402  -23.9935  -28.0868 H   0  0  0  0  0  0  0  0  0  0  0  0
  -12.7933  -24.6547  -26.9473 H   0  0  0  0  0  0  0  0  0  0  0  0
  -16.4310  -23.8550  -25.4054 H   0  0  0  0  0  0  0  0  0  0  0  0
  -15.4994  -25.3013  -25.5827 H   0  0  0  0  0  0  0  0  0  0  0  0
  -16.0260  -24.4398  -27.0037 H   0  0  0  0  0  0  0  0  0  0  0  0
  -14.2630  -23.3726  -23.8575 H   0  0  0  0  0  0  0  0  0  0  0  0
  -12.6754  -23.2637  -24.6380 H   0  0  0  0  0  0  0  0  0  0  0  0
  -13.5382  -24.7984  -24.5916 H   0  0  0  0  0  0  0  0  0  0  0  0
  1  2  2  0
  1 13  1  0
  2  3  1  0
  2  6  1  0
  3  4  1  0
  3 22  1  0
  4  5  2  0
  4 14  1  0
  6  7  2  0
  6 11  1  0
  7  8  1  0
  7 23  1  0
  8  9  2  0
  8 24  1  0
  9 10  1  0
  9 12  1  0
 10 11  2  0
 10 25  1  0
 11 26  1  0
 12 19  1  0
 12 20  1  0
 12 21  1  0
 13 14  2  0
 13 18  1  0
 14 15  1  0
 15 16  2  0
 15 27  1  0
 16 17  1  0
 16 28  1  0
 17 18  2  0
 17 29  1  0
 18 30  1  0
 19 31  1  0
 19 32  1  0
 19 33  1  0
 20 34  1  0
 20 35  1  0
 20 36  1  0
 21 37  1  0
 21 38  1  0
 21 39  1  0
M  END
>  <Name>  (1) 
3a

>  <IC50[nM]>  (1) 
8.6999999999999993

>  <atom.dprop.PartialCharge>  (1) 
-0.61748445 0.56409127 -0.50290596 0.7081716 -0.62238276 -0.17289194 -0.094359174 -0.12556057 -0.044035867 -0.12556057 -0.094359174 -0.020872239 0.19516015 -0.18884632 -0.055149 -0.16084912 -0.09173463 -0.12504964 -0.08079982 -0.08079982 -0.08079982 0.3425271 0.14144908 0.1357708 0.1357708 0.14144908 0.15637031 0.13939586 0.1354684 0.15205859 0.03741748 0.03741748 0.03741748 0.03741748 0.03741748 0.03741748 0.03741748 0.03741748 0.03741748

>  <experimental dG reference units>  (1) 
nM

>  <experimental dG reference field>  (1) 
IC50[nM]

>  <kJ/mol experimental dG>  (1) 
-46.29505577926837

>  <kcal/mol experimental dG>  (1) 
-11.064783886058404

>  <AmberAM1BCCCache>  (1) 
gASVQAMAAAAAAABdlCiMFm51bXB5Ll9jb3JlLm11bHRpYXJyYXmUjAZzY2FsYXKUk5SMBW51bXB5lIwFZHR5cGWUk5SMAmY4lImIh5RSlChLA4wBPJROTk5K/////0r/////SwB0lGJDCOEQVPGMDR3AlIaUUpRoA2gJQwj+9VqcE88ZQJSGlFKUaANoCUMIIVXfbZBEF8CUhpRSlGgDaAlDCEXPTPHBsCBAlIaUUpRoA2gJQwhdn6ojAn8dwJSGlFKUaANoCUMIZpAJGMlr/b+UhpRSlGgDaAlDCGtTxpj6jvG/lIaUUpRoA2gJQwjTjB09vHr5v5SGlFKUaANoCUMIqWVoc4J63r+UhpRSlGgDaAlDCNOMHT28evm/lIaUUpRoA2gJQwhrU8aY+o7xv5SGlFKUaANoCUMIv+wnpg3TxL+UhpRSlGgDaAlDCF9+s6CnMAFAlIaUUpRoA2gJQwjCD5+djPsBwJSGlFKUaANoCUMIYuidcOxK5r+UhpRSlGgDaAlDCPsyUb4NEP2/lIaUUpRoA2gJQwj3Sb7pie/xv5SGlFKUaANoCUMIkMVNV2A397+UhpRSlGgDaAlDCOsIHp0gcvC/lIaUUpRoA2gJQwjrCB6dIHLwv5SGlFKUaANoCUMI6wgenSBy8L+UhpRSlGgDaAlDCODrK2OFABBAlIaUUpRoA2gJQwgvR30KpFP7P5SGlFKUaANoCUMIeFxPlGF6+j+UhpRSlGgDaAlDCHhcT5Rhevo/lIaUUpRoA2gJQwgvR30KpFP7P5SGlFKUaANoCUMItwnJmEfH/T+UhpRSlGgDaAlDCJBjlRf2Mfo/lIaUUpRoA2gJQwgEbZ3GZtH5P5SGlFKUaANoCUMIXCFdTuHV/D+UhpRSlGgDaAlDCHYwXUawc90/lIaUUpRoA2gJQwh2MF1GsHPdP5SGlFKUaANoCUMIdjBdRrBz3T+UhpRSlGgDaAlDCHYwXUawc90/lIaUUpRoA2gJQwh2MF1GsHPdP5SGlFKUaANoCUMIdjBdRrBz3T+UhpRSlGgDaAlDCHYwXUawc90/lIaUUpRoA2gJQwh2MF1GsHPdP5SGlFKUaANoCUMIdjBdRrBz3T+UhpRSlGUu

$$$$
5e
     RDKit          3D

 37 39  0  0  0  0  0  0  0  0999 V2000
  -14.6145  -14.8753  -27.6783 C   0  0  0  0  0  0  0  0  0  0  0  0
  -15.1464  -15.6452  -26.6477 C   0  0  0  0  0  0  0  0  0  0  0  0
  -14.7773  -13.4982  -27.6334 C   0  0  0  0  0  0  0  0  0  0  0  0
  -15.8626  -15.0639  -25.5930 C   0  0  0  0  0  0  0  0  0  0  0  0
  -14.9335  -17.0116  -26.6934 N   0  0  0  0  0  0  0  0  0  0  0  0
  -15.4592  -12.9286  -26.5614 C   0  0  0  0  0  0  0  0  0  0  0  0
  -16.0212  -13.6877  -25.5413 C   0  0  0  0  0  0  0  0  0  0  0  0
  -16.4561  -15.9663  -24.5344 C   0  0  0  0  0  0  0  0  0  0  0  0
  -16.1772  -17.2727  -24.7852 N   0  0  0  0  0  0  0  0  0  0  0  0
  -17.1375  -15.6099  -23.5713 O   0  0  0  0  0  0  0  0  0  0  0  0
  -15.4463  -17.8122  -25.8274 C   0  0  0  0  0  0  0  0  0  0  0  0
  -15.3013  -19.2577  -25.9685 C   0  0  0  0  0  0  0  0  0  0  0  0
  -15.7883  -20.1437  -25.0032 C   0  0  0  0  0  0  0  0  0  0  0  0
  -15.5853  -21.5050  -25.1666 C   0  0  0  0  0  0  0  0  0  0  0  0
  -14.9212  -21.9889  -26.3002 C   0  0  0  0  0  0  0  0  0  0  0  0
  -14.4497  -21.1036  -27.2603 C   0  0  0  0  0  0  0  0  0  0  0  0
  -14.6471  -19.7514  -27.1044 C   0  0  0  0  0  0  0  0  0  0  0  0
  -14.5675  -23.4595  -26.4211 C   0  0  0  0  0  0  0  0  0  0  0  0
  -14.2543  -23.8948  -27.7188 O   0  0  0  0  0  0  0  0  0  0  0  0
  -15.5911  -11.2537  -26.4871 Cl  0  0  0  0  0  0  0  0  0  0  0  0
  -15.7371  -24.3734  -26.1449 C   0  0  0  0  0  0  0  0  0  0  0  0
  -13.3528  -23.6876  -25.5352 C   0  0  0  0  0  0  0  0  0  0  0  0
  -14.0725  -15.3349  -28.4916 H   0  0  0  0  0  0  0  0  0  0  0  0
  -14.3582  -12.8718  -28.4085 H   0  0  0  0  0  0  0  0  0  0  0  0
  -16.5533  -13.2093  -24.7301 H   0  0  0  0  0  0  0  0  0  0  0  0
  -16.6582  -17.9076  -24.1598 H   0  0  0  0  0  0  0  0  0  0  0  0
  -16.2939  -19.7994  -24.1117 H   0  0  0  0  0  0  0  0  0  0  0  0
  -15.9101  -22.1690  -24.3811 H   0  0  0  0  0  0  0  0  0  0  0  0
  -13.8986  -21.4549  -28.1189 H   0  0  0  0  0  0  0  0  0  0  0  0
  -14.2620  -19.0974  -27.8744 H   0  0  0  0  0  0  0  0  0  0  0  0
  -14.0506  -24.8357  -27.6678 H   0  0  0  0  0  0  0  0  0  0  0  0
  -16.5721  -24.0859  -26.7829 H   0  0  0  0  0  0  0  0  0  0  0  0
  -16.0738  -24.2984  -25.1148 H   0  0  0  0  0  0  0  0  0  0  0  0
  -15.5257  -25.4267  -26.3342 H   0  0  0  0  0  0  0  0  0  0  0  0
  -12.5483  -22.9937  -25.7771 H   0  0  0  0  0  0  0  0  0  0  0  0
  -12.9750  -24.6916  -25.6788 H   0  0  0  0  0  0  0  0  0  0  0  0
  -13.5852  -23.5615  -24.4766 H   0  0  0  0  0  0  0  0  0  0  0  0
  1  2  2  0
  1  3  1  0
  1 23  1  0
  2  4  1  0
  2  5  1  0
  3  6  2  0
  3 24  1  0
  4  7  2  0
  4  8  1  0
  5 11  2  0
  6  7  1  0
  6 20  1  0
  7 25  1  0
  8  9  1  0
  8 10  2  0
  9 11  1  0
  9 26  1  0
 11 12  1  0
 12 13  2  0
 12 17  1  0
 13 14  1  0
 13 27  1  0
 14 15  2  0
 14 28  1  0
 15 16  1  0
 15 18  1  0
 16 17  2  0
 16 29  1  0
 17 30  1  0
 18 19  1  0
 18 21  1  0
 18 22  1  0
 19 31  1  0
 21 32  1  0
 21 33  1  0
 21 34  1  0
 22 35  1  0
 22 36  1  0
 22 37  1  0
M  END
>  <Name>  (2) 
5e

>  <IC50[nM]>  (2) 
39

>  <atom.dprop.PartialCharge>  (2) 
-0.11638025 0.20003322 -0.09184359 -0.17698404 -0.61852914 -0.009414986 -0.057468403 0.70733213 -0.50043523 -0.61668944 0.56694126 -0.16601542 -0.09924121 -0.10764496 -0.05335017 -0.10764496 -0.09924121 0.19742179 -0.59185576 -0.08922832 -0.11568701 -0.11568701 0.1565432 0.14992413 0.17579843 0.34323752 0.1432668 0.14085642 0.14085642 0.1432668 0.4011082 0.04445917 0.04445917 0.04445917 0.04445917 0.04445917 0.04445917

>  <experimental dG reference units>  (2) 
nM

>  <experimental dG reference field>  (2) 
IC50[nM]

>  <kJ/mol experimental dG>  (2) 
-42.552930530121756

>  <kcal/mol experimental dG>  (2) 
-10.170394486166767

>  <AmberAM1BCCCache>  (2) 
gASVGgMAAAAAAABdlCiMFm51bXB5Ll9jb3JlLm11bHRpYXJyYXmUjAZzY2FsYXKUk5SMBW51bXB5lIwFZHR5cGWUk5SMAmY4lImIh5RSlChLA4wBPJROTk5K/////0r/////SwB0lGJDCILHNQN54PW/lIaUUpRoA2gJQwjbhsf5i3sBQJSGlFKUaANoCUMIc0Ke5jH58L+UhpRSlGgDaAlDCAAMD5xggAHAlIaUUpRoA2gJQwhFCgiZPgAdwJSGlFKUaANoCUMI7TfVtVD8v7+UhpRSlGgDaAlDCFrZXWo8XuS/lIaUUpRoA2gJQwgqU2MoYLEgQJSGlFKUaANoCUMIhk6TFUI3F8CUhpRSlGgDaAlDCKyewzhaNR3AlIaUUpRoA2gJQwg8+uTIhfQZQJSGlFKUaANoCUMIbn/hZQDW/L+UhpRSlGgDaAlDCFohAoInS/K/lIaUUpRoA2gJQwj1tufQc4n2v5SGlFKUaANoCUMIfYzzQoZZ47+UhpRSlGgDaAlDCPW259Bzifa/lIaUUpRoA2gJQwhaIQKCJ0vyv5SGlFKUaANoCUMI4wsWfZBNAkCUhpRSlGgDaAlDCClpx+eSRxzAlIaUUpRoA2gJQwgekHFQGHXvv5SGlFKUaANoCUMI/kjhRLPW9r+UhpRSlGgDaAlDCP5I4USz1va/lIaUUpRoA2gJQwglJPn5gPz9P5SGlFKUaANoCUMIPkWVXouq/D+UhpRSlGgDaAlDCPhwYBg2UABAlIaUUpRoA2gJQwh78ne70w0QQJSGlFKUaANoCUMInWGta92I+z+UhpRSlGgDaAlDCFZM2+EfYvw/lIaUUpRoA2gJQwhWTNvhH2L8P5SGlFKUaANoCUMInWGta92I+z+UhpRSlGgDaAlDCA0lZiJpJBNAlIaUUpRoA2gJQwijgqqEvt3hP5SGlFKUaANoCUMIo4KqhL7d4T+UhpRSlGgDaAlDCKOCqoS+3eE/lIaUUpRoA2gJQwijgqqEvt3hP5SGlFKUaANoCUMIo4KqhL7d4T+UhpRSlGgDaAlDCKOCqoS+3eE/lIaUUpRlLg==

$$$$
1b
     RDKit          3D

 31 33  0  0  0  0  0  0  0  0999 V2000
  -15.3524  -19.2206  -25.9684 C   0  0  0  0  0  0  0  0  0  0  0  0
  -14.6526  -19.7081  -27.0823 C   0  0  0  0  0  0  0  0  0  0  0  0
  -15.8555  -20.1235  -25.0241 C   0  0  0  0  0  0  0  0  0  0  0  0
  -14.4541  -21.0636  -27.2485 C   0  0  0  0  0  0  0  0  0  0  0  0
  -15.6357  -21.4854  -25.1840 C   0  0  0  0  0  0  0  0  0  0  0  0
  -15.0526  -16.9445  -26.6871 N   0  0  0  0  0  0  0  0  0  0  0  0
  -14.9347  -21.9631  -26.2988 C   0  0  0  0  0  0  0  0  0  0  0  0
  -15.2162  -15.5610  -26.5929 C   0  0  0  0  0  0  0  0  0  0  0  0
  -15.9031  -15.0059  -25.5037 C   0  0  0  0  0  0  0  0  0  0  0  0
  -15.4462  -12.8187  -26.3599 C   0  0  0  0  0  0  0  0  0  0  0  0
  -14.7773  -13.3552  -27.4525 C   0  0  0  0  0  0  0  0  0  0  0  0
  -16.0203  -13.6235  -25.3815 C   0  0  0  0  0  0  0  0  0  0  0  0
  -14.6768  -14.7359  -27.5934 C   0  0  0  0  0  0  0  0  0  0  0  0
  -16.5313  -15.9392  -24.4895 C   0  0  0  0  0  0  0  0  0  0  0  0
  -16.2584  -17.2435  -24.7671 N   0  0  0  0  0  0  0  0  0  0  0  0
  -15.5317  -17.7669  -25.8203 C   0  0  0  0  0  0  0  0  0  0  0  0
  -17.2406  -15.6098  -23.5374 O   0  0  0  0  0  0  0  0  0  0  0  0
  -14.2525  -19.0464  -27.8382 H   0  0  0  0  0  0  0  0  0  0  0  0
  -16.3981  -19.7943  -24.1510 H   0  0  0  0  0  0  0  0  0  0  0  0
  -13.8938  -21.4078  -28.1049 H   0  0  0  0  0  0  0  0  0  0  0  0
  -15.9903  -22.1635  -24.4209 H   0  0  0  0  0  0  0  0  0  0  0  0
  -14.3604  -12.6891  -28.1964 H   0  0  0  0  0  0  0  0  0  0  0  0
  -16.5458  -13.1713  -24.5494 H   0  0  0  0  0  0  0  0  0  0  0  0
  -16.7352  -17.8915  -24.1540 H   0  0  0  0  0  0  0  0  0  0  0  0
  -14.1941  -15.1755  -28.4537 H   0  0  0  0  0  0  0  0  0  0  0  0
  -15.5319  -11.7476  -26.2520 H   0  0  0  0  0  0  0  0  0  0  0  0
  -14.7216  -23.3010  -26.4574 O   0  0  0  0  0  0  0  0  0  0  0  0
  -15.3339  -24.0453  -25.3080 C   0  0  0  0  0  0  0  0  0  0  0  0
  -15.1636  -25.1144  -25.4348 H   0  0  0  0  0  0  0  0  0  0  0  0
  -14.8779  -23.7133  -24.3753 H   0  0  0  0  0  0  0  0  0  0  0  0
  -16.4058  -23.8498  -25.2776 H   0  0  0  0  0  0  0  0  0  0  0  0
  1  2  2  0
  1  3  1  0
  1 16  1  0
  2  4  1  0
  2 18  1  0
  3  5  2  0
  3 19  1  0
  4  7  2  0
  4 20  1  0
  5  7  1  0
  5 21  1  0
  6  8  1  0
  6 16  2  0
  7 27  1  0
  8  9  2  0
  8 13  1  0
  9 12  1  0
  9 14  1  0
 10 11  1  0
 10 12  2  0
 10 26  1  0
 11 13  2  0
 11 22  1  0
 12 23  1  0
 13 25  1  0
 14 15  1  0
 14 17  2  0
 15 16  1  0
 15 24  1  0
 27 28  1  0
 28 29  1  0
 28 30  1  0
 28 31  1  0
M  END
>  <Name>  (3) 
1b

>  <IC50[nM]>  (3) 
52

>  <atom.dprop.PartialCharge>  (3) 
-0.21911448 -0.05734082 -0.05734082 -0.19031921 -0.19031921 -0.62021166 0.15715572 0.1950483 -0.18895823 -0.160961 -0.091846496 -0.05526086 -0.1251615 0.7080597 -0.50517464 0.5788196 -0.62249464 0.14268193 0.14268193 0.14929557 0.14929557 0.13535653 0.15625845 0.3424152 0.15194671 0.139284 -0.32093757 0.11677718 0.046788346 0.046788346 0.046788346

>  <experimental dG reference units>  (3) 
nM

>  <experimental dG reference field>  (3) 
IC50[nM]

>  <kJ/mol experimental dG>  (3) 
-41.835349785058675

>  <kcal/mol experimental dG>  (3) 
-9.99888857195475

>  <AmberAM1BCCCache>  (3) 
gASVqAIAAAAAAABdlCiMFm51bXB5Ll9jb3JlLm11bHRpYXJyYXmUjAZzY2FsYXKUk5SMBW51bXB5lIwFZHR5cGWUk5SMAmY4lImIh5RSlChLA4wBPJROTk5K/////0r/////SwB0lGJDCJ/wIrHX5QHAlIaUUpRoA2gJQwjhxqPs92fmv5SGlFKUaANoCUMI4caj7Pdn5r+UhpRSlGgDaAlDCBnDJxroqwHAlIaUUpRoA2gJQwgZwyca6KsBwJSGlFKUaANoCUMIjkhBFG07HcCUhpRSlGgDaAlDCD7l72ilwvs/lIaUUpRoA2gJQwgzAw+Amk0BQJSGlFKUaANoCUMIkYiBkr32AcCUhpRSlGgDaAlDCJkkFqhvBv2/lIaUUpRoA2gJQwiUO4PT6+Xxv5SGlFKUaANoCUMInMsnRLA35r+UhpRSlGgDaAlDCHOyjukJXve/lIaUUpRoA2gJQwgRMRS09bEgQJSGlFKUaANoCUMIWpBv0jpOF8CUhpRSlGgDaAlDCNy0ZcrCARpAlIaUUpRoA2gJQwjF2xuemnwdwJSGlFKUaANoCUMIwEnuRfXV+z+UhpRSlGgDaAlDCMBJ7kX11fs/lIaUUpRoA2gJQwiQO2I/zGb8P5SGlFKUaANoCUMIkDtiP8xm/D+UhpRSlGgDaAlDCCGAXDS9qvk/lIaUUpRoA2gJQwgaGASv5dD9P5SGlFKUaANoCUMITmE3/bXtD0CUhpRSlGgDaAlDCHk0HLw3r/w/lIaUUpRoA2gJQwjycdAtlDv6P5SGlFKUaANoCUMILbZX9XRwDsCUhpRSlGgDaAlDCDwm/oKJFfU/lIaUUpRoA2gJQwijV7CQpkfiP5SGlFKUaANoCUMIo1ewkKZH4j+UhpRSlGgDaAlDCKNXsJCmR+I/lIaUUpRlLg==

$$$$
5i
     RDKit          3D

 40 42  0  0  0  0  0  0  0  0999 V2000
  -14.6297  -14.6110  -27.5812 C   0  0  0  0  0  0  0  0  0  0  0  0
  -15.1557  -15.4829  -26.6107 C   0  0  0  0  0  0  0  0  0  0  0  0
  -14.7061  -13.2297  -27.3681 C   0  0  0  0  0  0  0  0  0  0  0  0
  -15.8175  -14.9591  -25.4923 C   0  0  0  0  0  0  0  0  0  0  0  0
  -14.9969  -16.8771  -26.7477 N   0  0  0  0  0  0  0  0  0  0  0  0
  -15.3270  -12.7227  -26.2281 C   0  0  0  0  0  0  0  0  0  0  0  0
  -15.9055  -13.5829  -25.2945 C   0  0  0  0  0  0  0  0  0  0  0  0
  -16.4244  -15.9205  -24.4984 C   0  0  0  0  0  0  0  0  0  0  0  0
  -16.0725  -17.2059  -24.7576 N   0  0  0  0  0  0  0  0  0  0  0  0
  -17.1821  -15.6197  -23.5774 O   0  0  0  0  0  0  0  0  0  0  0  0
  -15.4152  -17.7178  -25.8578 C   0  0  0  0  0  0  0  0  0  0  0  0
  -15.2565  -19.1843  -25.9941 C   0  0  0  0  0  0  0  0  0  0  0  0
  -14.6319  -19.7039  -27.1360 C   0  0  0  0  0  0  0  0  0  0  0  0
  -14.4496  -21.0707  -27.2868 C   0  0  0  0  0  0  0  0  0  0  0  0
  -14.8843  -21.9604  -26.3031 C   0  0  0  0  0  0  0  0  0  0  0  0
  -15.5283  -21.4500  -25.1676 C   0  0  0  0  0  0  0  0  0  0  0  0
  -15.7167  -20.0783  -25.0163 C   0  0  0  0  0  0  0  0  0  0  0  0
  -14.5831  -23.4642  -26.4242 C   0  0  0  0  0  0  0  0  0  0  0  0
  -14.2264  -23.8803  -27.7268 O   0  0  0  0  0  0  0  0  0  0  0  0
  -15.8049  -24.3384  -26.1355 C   0  0  0  0  0  0  0  0  0  0  0  0
  -13.4007  -23.8019  -25.5129 C   0  0  0  0  0  0  0  0  0  0  0  0
  -13.9366  -15.1262  -28.8376 C   0  0  0  0  0  0  0  0  0  0  0  0
  -14.2766  -12.5394  -28.0816 H   0  0  0  0  0  0  0  0  0  0  0  0
  -15.3596  -11.6517  -26.0808 H   0  0  0  0  0  0  0  0  0  0  0  0
  -16.4005  -13.1831  -24.4207 H   0  0  0  0  0  0  0  0  0  0  0  0
  -16.5043  -17.8684  -24.1280 H   0  0  0  0  0  0  0  0  0  0  0  0
  -14.2723  -19.0519  -27.9195 H   0  0  0  0  0  0  0  0  0  0  0  0
  -13.9353  -21.4333  -28.1648 H   0  0  0  0  0  0  0  0  0  0  0  0
  -15.8641  -22.1087  -24.3790 H   0  0  0  0  0  0  0  0  0  0  0  0
  -16.2078  -19.7294  -24.1199 H   0  0  0  0  0  0  0  0  0  0  0  0
  -14.0472  -24.8289  -27.7070 H   0  0  0  0  0  0  0  0  0  0  0  0
  -16.6360  -24.0017  -26.7470 H   0  0  0  0  0  0  0  0  0  0  0  0
  -16.0765  -24.2907  -25.0828 H   0  0  0  0  0  0  0  0  0  0  0  0
  -15.6404  -25.3866  -26.3851 H   0  0  0  0  0  0  0  0  0  0  0  0
  -12.5084  -23.2486  -25.8057 H   0  0  0  0  0  0  0  0  0  0  0  0
  -13.1740  -24.8577  -25.5627 H   0  0  0  0  0  0  0  0  0  0  0  0
  -13.6102  -23.5638  -24.4695 H   0  0  0  0  0  0  0  0  0  0  0  0
  -13.7369  -14.3270  -29.5522 H   0  0  0  0  0  0  0  0  0  0  0  0
  -14.5474  -15.8740  -29.3431 H   0  0  0  0  0  0  0  0  0  0  0  0
  -12.9894  -15.5908  -28.5755 H   0  0  0  0  0  0  0  0  0  0  0  0
  1  2  2  0
  1  3  1  0
  1 22  1  0
  2  4  1  0
  2  5  1  0
  3  6  2  0
  3 23  1  0
  4  7  2  0
  4  8  1  0
  5 11  2  0
  6  7  1  0
  6 24  1  0
  7 25  1  0
  8  9  1  0
  8 10  2  0
  9 11  1  0
  9 26  1  0
 11 12  1  0
 12 13  2  0
 12 17  1  0
 13 14  1  0
 13 27  1  0
 14 15  2  0
 14 28  1  0
 15 16  1  0
 15 18  1  0
 16 17  2  0
 16 29  1  0
 17 30  1  0
 18 19  1  0
 18 20  1  0
 18 21  1  0
 19 31  1  0
 20 32  1  0
 20 33  1  0
 20 34  1  0
 21 35  1  0
 21 36  1  0
 21 37  1  0
 22 38  1  0
 22 39  1  0
 22 40  1  0
M  END
>  <Name>  (4) 
5i

>  <IC50[nM]>  (4) 
1.3999999999999999

>  <atom.dprop.PartialCharge>  (4) 
-0.0622626 0.19539599 -0.10930035 -0.19076118 -0.61946577 -0.14669037 -0.0639312 0.7098941 -0.502042 -0.6193223 0.55591774 -0.16588165 -0.09801988 -0.10827912 -0.053984314 -0.10827912 -0.09801988 0.19678769 -0.59249 -0.1163212 -0.1163212 -0.051113877 0.13852656 0.13843639 0.15709317 0.34299934 0.14263259 0.14022224 0.14022224 0.14263259 0.400474 0.043825015 0.043825015 0.043825015 0.043825015 0.043825015 0.043825015 0.052766964 0.052766964 0.052766964

>  <experimental dG reference units>  (4) 
nM

>  <experimental dG reference field>  (4) 
IC50[nM]

>  <kJ/mol experimental dG>  (4) 
-50.85186718967576

>  <kcal/mol experimental dG>  (4) 
-12.153887951643345

>  <AmberAM1BCCCache>  (4) 
gASVUwMAAAAAAABdlCiMFm51bXB5Ll9jb3JlLm11bHRpYXJyYXmUjAZzY2FsYXKUk5SMBW51bXB5lIwFZHR5cGWUk5SMAmY4lImIh5RSlChLA4wBPJROTk5K/////0r/////SwB0lGJDCGd247zS3ee/lIaUUpRoA2gJQwgxfr/UT+sAQJSGlFKUaANoCUMI3kCe0sja8r+UhpRSlGgDaAlDCNoio8fFfwHAlIaUUpRoA2gJQwjhFrNE3/McwJSGlFKUaANoCUMI5V3daTjo+7+UhpRSlGgDaAlDCNG5RTUYQ+m/lIaUUpRoA2gJQwgLzm7ofasgQJSGlFKUaANoCUMIxFh8lQZDF8CUhpRSlGgDaAlDCNGhZjWKiR3AlIaUUpRoA2gJQwgV90HMVaAZQJSGlFKUaANoCUMIULuVw/ND/L+UhpRSlGgDaAlDCPZH5FVdkvK/lIaUUpRoA2gJQwip5A8oPoj2v5SGlFKUaANoCUMIhMsr5Mh45L+UhpRSlGgDaAlDCKnkDyg+iPa/lIaUUpRoA2gJQwj2R+RVXZLyv5SGlFKUaANoCUMIrPK/JU9mAkCUhpRSlGgDaAlDCJV0kX1FRxzAlIaUUpRoA2gJQwiydgmcfdX2v5SGlFKUaANoCUMIsnYJnH3V9r+UhpRSlGgDaAlDCOcb8LMGROG/lIaUUpRoA2gJQwh6Xikojtf5P5SGlFKUaANoCUMIBVUheR04+j+UhpRSlGgDaAlDCCz7VPpuzf0/lIaUUpRoA2gJQwjX0t+i+usPQJSGlFKUaANoCUMIRzZHQO9x+z+UhpRSlGgDaAlDCF0jN+INM/w/lIaUUpRoA2gJQwhdIzfiDTP8P5SGlFKUaANoCUMIRzZHQO9x+z+UhpRSlGgDaAlDCM8afaKkGBNAlIaUUpRoA2gJQwiXdCS2CdDhP5SGlFKUaANoCUMIl3QktgnQ4T+UhpRSlGgDaAlDCJd0JLYJ0OE/lIaUUpRoA2gJQwiXdCS2CdDhP5SGlFKUaANoCUMIl3QktgnQ4T+UhpRSlGgDaAlDCJd0JLYJ0OE/lIaUUpRoA2gJQwjzXJAAcMHiP5SGlFKUaANoCUMI81yQAHDB4j+UhpRSlGgDaAlDCPNckABwweI/lIaUUpRlLg==

$$$$
5h
     RDKit          3D

 41 43  0  0  0  0  0  0  0  0999 V2000
  -14.6321  -14.6131  -27.5789 C   0  0  0  0  0  0  0  0  0  0  0  0
  -15.1582  -15.4760  -26.5985 C   0  0  0  0  0  0  0  0  0  0  0  0
  -14.7198  -13.2263  -27.3566 C   0  0  0  0  0  0  0  0  0  0  0  0
  -15.8099  -14.9532  -25.4732 C   0  0  0  0  0  0  0  0  0  0  0  0
  -15.0163  -16.8727  -26.7418 N   0  0  0  0  0  0  0  0  0  0  0  0
  -15.3338  -12.7191  -26.2121 C   0  0  0  0  0  0  0  0  0  0  0  0
  -15.8975  -13.5773  -25.2707 C   0  0  0  0  0  0  0  0  0  0  0  0
  -16.4124  -15.9145  -24.4748 C   0  0  0  0  0  0  0  0  0  0  0  0
  -16.0704  -17.2031  -24.7417 N   0  0  0  0  0  0  0  0  0  0  0  0
  -17.1581  -15.6132  -23.5452 O   0  0  0  0  0  0  0  0  0  0  0  0
  -15.4259  -17.7159  -25.8489 C   0  0  0  0  0  0  0  0  0  0  0  0
  -15.2670  -19.1828  -25.9921 C   0  0  0  0  0  0  0  0  0  0  0  0
  -14.6478  -19.7009  -27.1380 C   0  0  0  0  0  0  0  0  0  0  0  0
  -14.4645  -21.0679  -27.2901 C   0  0  0  0  0  0  0  0  0  0  0  0
  -14.8926  -21.9587  -26.3028 C   0  0  0  0  0  0  0  0  0  0  0  0
  -15.5322  -21.4499  -25.1653 C   0  0  0  0  0  0  0  0  0  0  0  0
  -15.7215  -20.0777  -25.0122 C   0  0  0  0  0  0  0  0  0  0  0  0
  -14.5807  -23.4613  -26.4256 C   0  0  0  0  0  0  0  0  0  0  0  0
  -14.2589  -23.8828  -27.7351 O   0  0  0  0  0  0  0  0  0  0  0  0
  -15.7774  -24.3541  -26.0965 C   0  0  0  0  0  0  0  0  0  0  0  0
  -13.3649  -23.7811  -25.5544 C   0  0  0  0  0  0  0  0  0  0  0  0
  -14.0089  -15.1610  -28.6904 O   0  0  0  0  0  0  0  0  0  0  0  0
  -13.4790  -14.2957  -29.6929 C   0  0  0  0  0  0  0  0  0  0  0  0
  -14.3038  -12.5168  -28.0559 H   0  0  0  0  0  0  0  0  0  0  0  0
  -15.3670  -11.6496  -26.0662 H   0  0  0  0  0  0  0  0  0  0  0  0
  -16.3822  -13.1806  -24.3897 H   0  0  0  0  0  0  0  0  0  0  0  0
  -16.5117  -17.8636  -24.1170 H   0  0  0  0  0  0  0  0  0  0  0  0
  -14.2910  -19.0470  -27.9228 H   0  0  0  0  0  0  0  0  0  0  0  0
  -13.9561  -21.4294  -28.1721 H   0  0  0  0  0  0  0  0  0  0  0  0
  -15.8610  -22.1093  -24.3753 H   0  0  0  0  0  0  0  0  0  0  0  0
  -16.2079  -19.7296  -24.1121 H   0  0  0  0  0  0  0  0  0  0  0  0
  -14.0757  -24.8295  -27.7157 H   0  0  0  0  0  0  0  0  0  0  0  0
  -16.6353  -24.0351  -26.6807 H   0  0  0  0  0  0  0  0  0  0  0  0
  -16.0154  -24.3110  -25.0354 H   0  0  0  0  0  0  0  0  0  0  0  0
  -15.6023  -25.4031  -26.3485 H   0  0  0  0  0  0  0  0  0  0  0  0
  -12.4970  -23.2035  -25.8704 H   0  0  0  0  0  0  0  0  0  0  0  0
  -13.1139  -24.8310  -25.6259 H   0  0  0  0  0  0  0  0  0  0  0  0
  -13.5469  -23.5576  -24.5025 H   0  0  0  0  0  0  0  0  0  0  0  0
  -13.0965  -14.8894  -30.5215 H   0  0  0  0  0  0  0  0  0  0  0  0
  -12.6505  -13.6919  -29.3183 H   0  0  0  0  0  0  0  0  0  0  0  0
  -14.2476  -13.6342  -30.0951 H   0  0  0  0  0  0  0  0  0  0  0  0
  1  2  2  0
  1  3  1  0
  1 22  1  0
  2  4  1  0
  2  5  1  0
  3  6  2  0
  3 24  1  0
  4  7  2  0
  4  8  1  0
  5 11  2  0
  6  7  1  0
  6 25  1  0
  7 26  1  0
  8  9  1  0
  8 10  2  0
  9 11  1  0
  9 27  1  0
 11 12  1  0
 12 13  2  0
 12 17  1  0
 13 14  1  0
 13 28  1  0
 14 15  2  0
 14 29  1  0
 15 16  1  0
 15 18  1  0
 16 17  2  0
 16 30  1  0
 17 31  1  0
 18 19  1  0
 18 20  1  0
 18 21  1  0
 19 32  1  0
 20 33  1  0
 20 34  1  0
 20 35  1  0
 21 36  1  0
 21 37  1  0
 21 38  1  0
 22 23  1  0
 23 39  1  0
 23 40  1  0
 23 41  1  0
M  END
>  <Name>  (5) 
5h

>  <IC50[nM]>  (5) 
43

>  <atom.dprop.PartialCharge>  (5) 
0.14203781 0.16567709 -0.17941359 -0.16372344 -0.60662234 -0.113445595 -0.09562705 0.70788884 -0.5026897 -0.62120163 0.5593208 -0.16563684 -0.09953126 -0.10845761 -0.0541628 -0.10845761 -0.09953126 0.19660921 -0.59266853 -0.11649969 -0.11649969 -0.28237298 0.107284606 0.14330377 0.13831398 0.16088596 0.34155723 0.14245409 0.14004374 0.14004374 0.14245409 0.4002955 0.04364653 0.04364653 0.04364653 0.04364653 0.04364653 0.04364653 0.045497388 0.045497388 0.045497388

>  <experimental dG reference units>  (5) 
nM

>  <experimental dG reference field>  (5) 
IC50[nM]

>  <kJ/mol experimental dG>  (5) 
-42.309385685149756

>  <kcal/mol experimental dG>  (5) 
-10.1121858712117

>  <AmberAM1BCCCache>  (5) 
gASVZgMAAAAAAABdlCiMFm51bXB5Ll9jb3JlLm11bHRpYXJyYXmUjAZzY2FsYXKUk5SMBW51bXB5lIwFZHR5cGWUk5SMAmY4lImIh5RSlChLA4wBPJROTk5K/////0r/////SwB0lGJDCGSHmbF1C/o/lIaUUpRoA2gJQwh574Np0g/+P5SGlFKUaANoCUMI8BGORJxBAcCUhpRSlGgDaAlDCGUndjHASf6/lIaUUpRoA2gJQwg3FaTaEoobwJSGlFKUaANoCUMIamUtyC+w9b+UhpRSlGgDaAlDCM218Zdte/K/lIaUUpRoA2gJQwjKYYZ7RZ8gQJSGlFKUaANoCUMI0TTwsEE3F8CUhpRSlGgDaAlDCIJ7GCXplR3AlIaUUpRoA2gJQwhlKjvNMQ8ZQJSGlFKUaANoCUMItTnxNwmE+7+UhpRSlGgDaAlDCM218Zdte/K/lIaUUpRoA2gJQwjFTZkSlqH2v5SGlFKUaANoCUMIBJm6YcDb5L+UhpRSlGgDaAlDCMVNmRKWofa/lIaUUpRoA2gJQwjNtfGXbXvyv5SGlFKUaANoCUMI7zyaGrVlAkCUhpRSlGgDaAlDCKNQBZmAOxzAlIaUUpRoA2gJQwgr4lSysdb2v5SGlFKUaANoCUMIK+JUsrHW9r+UhpRSlGgDaAlDCNk3icwm/wvAlIaUUpRoA2gJQwgErI++B4D0P5SGlFKUaANoCUMIWdtJXMDH+j+UhpRSlGgDaAlDCNDkUQsxZ/o/lIaUUpRoA2gJQwiCgX3dEV3+P5SGlFKUaANoCUMIGh26l2DrD0CUhpRSlGgDaAlDCBLGd9ICofs/lIaUUpRoA2gJQwhAuq33tRn8P5SGlFKUaANoCUMIQLqt97UZ/D+UhpRSlGgDaAlDCBLGd9ICofs/lIaUUpRoA2gJQwjwP+qcVxgTQJSGlFKUaANoCUMI/upXaYG94T+UhpRSlGgDaAlDCP7qV2mBveE/lIaUUpRoA2gJQwj+6ldpgb3hP5SGlFKUaANoCUMI/upXaYG94T+UhpRSlGgDaAlDCP7qV2mBveE/lIaUUpRoA2gJQwj+6ldpgb3hP5SGlFKUaANoCUMIc/RfGPJc4T+UhpRSlGgDaAlDCHP0XxjyXOE/lIaUUpRoA2gJQwhz9F8Y8lzhP5SGlFKUZS4=

$$$$
5b
     RDKit          3D

 37 39  0  0  0  0  0  0  0  0999 V2000
  -14.7375  -14.6323  -27.5622 C   0  0  0  0  0  0  0  0  0  0  0  0
  -15.2209  -15.5030  -26.5843 C   0  0  0  0  0  0  0  0  0  0  0  0
  -14.8052  -13.2521  -27.3541 C   0  0  0  0  0  0  0  0  0  0  0  0
  -15.8290  -14.9959  -25.4322 C   0  0  0  0  0  0  0  0  0  0  0  0
  -15.0637  -16.8857  -26.7646 N   0  0  0  0  0  0  0  0  0  0  0  0
  -15.3769  -12.7497  -26.1825 C   0  0  0  0  0  0  0  0  0  0  0  0
  -15.8955  -13.6216  -25.2220 C   0  0  0  0  0  0  0  0  0  0  0  0
  -16.3909  -15.9775  -24.4274 C   0  0  0  0  0  0  0  0  0  0  0  0
  -16.0862  -17.2568  -24.7503 N   0  0  0  0  0  0  0  0  0  0  0  0
  -17.0800  -15.7139  -23.4429 O   0  0  0  0  0  0  0  0  0  0  0  0
  -15.4531  -17.7422  -25.8760 C   0  0  0  0  0  0  0  0  0  0  0  0
  -15.2977  -19.2017  -26.0254 C   0  0  0  0  0  0  0  0  0  0  0  0
  -14.7218  -19.7203  -27.1921 C   0  0  0  0  0  0  0  0  0  0  0  0
  -14.5398  -21.0868  -27.3404 C   0  0  0  0  0  0  0  0  0  0  0  0
  -14.9310  -21.9625  -26.3286 C   0  0  0  0  0  0  0  0  0  0  0  0
  -15.5262  -21.4542  -25.1705 C   0  0  0  0  0  0  0  0  0  0  0  0
  -15.7136  -20.0876  -25.0202 C   0  0  0  0  0  0  0  0  0  0  0  0
  -14.6142  -23.4546  -26.4203 C   0  0  0  0  0  0  0  0  0  0  0  0
  -14.2412  -23.9050  -27.6919 O   0  0  0  0  0  0  0  0  0  0  0  0
  -15.8331  -24.3311  -26.1345 C   0  0  0  0  0  0  0  0  0  0  0  0
  -13.3967  -23.7268  -25.5432 C   0  0  0  0  0  0  0  0  0  0  0  0
  -16.4397  -13.1379  -24.0896 F   0  0  0  0  0  0  0  0  0  0  0  0
  -14.2807  -15.0241  -28.4595 H   0  0  0  0  0  0  0  0  0  0  0  0
  -14.4099  -12.5699  -28.0945 H   0  0  0  0  0  0  0  0  0  0  0  0
  -15.4149  -11.6823  -26.0197 H   0  0  0  0  0  0  0  0  0  0  0  0
  -16.4975  -17.9291  -24.1171 H   0  0  0  0  0  0  0  0  0  0  0  0
  -14.3964  -19.0698  -27.9924 H   0  0  0  0  0  0  0  0  0  0  0  0
  -14.0590  -21.4564  -28.2342 H   0  0  0  0  0  0  0  0  0  0  0  0
  -15.8125  -22.1120  -24.3626 H   0  0  0  0  0  0  0  0  0  0  0  0
  -16.1645  -19.7415  -24.1011 H   0  0  0  0  0  0  0  0  0  0  0  0
  -14.0527  -24.8497  -27.6378 H   0  0  0  0  0  0  0  0  0  0  0  0
  -16.7037  -23.9737  -26.6848 H   0  0  0  0  0  0  0  0  0  0  0  0
  -16.0714  -24.3463  -25.0730 H   0  0  0  0  0  0  0  0  0  0  0  0
  -15.6834  -25.3773  -26.4099 H   0  0  0  0  0  0  0  0  0  0  0  0
  -12.5749  -23.0602  -25.7999 H   0  0  0  0  0  0  0  0  0  0  0  0
  -13.0449  -24.7489  -25.6799 H   0  0  0  0  0  0  0  0  0  0  0  0
  -13.6168  -23.5810  -24.4847 H   0  0  0  0  0  0  0  0  0  0  0  0
  1  2  2  0
  1  3  1  0
  1 23  1  0
  2  4  1  0
  2  5  1  0
  3  6  2  0
  3 24  1  0
  4  7  2  0
  4  8  1  0
  5 11  2  0
  6  7  1  0
  6 25  1  0
  7 22  1  0
  8  9  1  0
  8 10  2  0
  9 11  1  0
  9 26  1  0
 11 12  1  0
 12 13  2  0
 12 17  1  0
 13 14  1  0
 13 27  1  0
 14 15  2  0
 14 28  1  0
 15 16  1  0
 15 18  1  0
 16 17  2  0
 16 29  1  0
 17 30  1  0
 18 19  1  0
 18 20  1  0
 18 21  1  0
 19 31  1  0
 20 32  1  0
 20 33  1  0
 20 34  1  0
 21 35  1  0
 21 36  1  0
 21 37  1  0
M  END
>  <Name>  (6) 
5b

>  <IC50[nM]>  (6) 
21

>  <atom.dprop.PartialCharge>  (6) 
-0.1362777 0.21900403 -0.07437315 -0.22899112 -0.6187407 -0.20521486 0.21997476 0.71535736 -0.50468564 -0.60405296 0.5652548 -0.16609387 -0.09957141 -0.10797516 -0.053680364 -0.10797516 -0.09957141 0.19709161 -0.59218603 -0.11601724 -0.11601724 -0.11321056 0.15745473 0.13899109 0.15456353 0.3444649 0.14293656 0.1405262 0.1405262 0.14293656 0.400778 0.04412897 0.04412897 0.04412897 0.04412897 0.04412897 0.04412897

>  <experimental dG reference units>  (6) 
nM

>  <experimental dG reference field>  (6) 
IC50[nM]

>  <kJ/mol experimental dG>  (6) 
-44.09703306180055

>  <kcal/mol experimental dG>  (6) 
-10.539443848422694

>  <AmberAM1BCCCache>  (6) 
gASVGgMAAAAAAABdlCiMFm51bXB5Ll9jb3JlLm11bHRpYXJyYXmUjAZzY2FsYXKUk5SMBW51bXB5lIwFZHR5cGWUk5SMAmY4lImIh5RSlChLA4wBPJROTk5K/////0r/////SwB0lGJDCJFMzR/Ax/q/lIaUUpRoA2gJQwjAS9WzC9cDQJSGlFKUaANoCUMIC0LdeTFn6r+UhpRSlGgDaAlDCOKccJP07gXAlIaUUpRoA2gJQwj/AeH/u1QdwJSGlFKUaANoCUMIhh+0UdrDAsCUhpRSlGgDaAlDCB5bQtAiOgNAlIaUUpRoA2gJQwhk0ZEHe8MgQJSGlFKUaANoCUMIKUzR6WVPF8CUhpRSlGgDaAlDCMWytKwpaBzAlIaUUpRoA2gJQwhT9H9b3zAaQJSGlFKUaANoCUMIbn/hZQDW/L+UhpRSlGgDaAlDCEQ0EuAIivG/lIaUUpRoA2gJQwh/k4lAjfP3v5SGlFKUaANoCUMIkBLhI2bX8L+UhpRSlGgDaAlDCH+TiUCN8/e/lIaUUpRoA2gJQwhENBLgCIrxv5SGlFKUaANoCUMIQA7YqGw1AkCUhpRSlGgDaAlDCEBwDWsn/xvAlIaUUpRoA2gJQwgbnilsqXHzv5SGlFKUaANoCUMIG54pbKlx87+UhpRSlGgDaAlDCAZGisE+6vS/lIaUUpRoA2gJQwiaLQGp8Zv9P5SGlFKUaANoCUMIzG85cgb4+j+UhpRSlGgDaAlDCA83CVhiO/0/lIaUUpRoA2gJQwhM8Zal5RkQQJSGlFKUaANoCUMIhVpn6EjR+z+UhpRSlGgDaAlDCOJcKRQlufs/lIaUUpRoA2gJQwjiXCkUJbn7P5SGlFKUaANoCUMIhVpn6EjR+z+UhpRSlGgDaAlDCJkoCWQzABNAlIaUUpRoA2gJQwhzdB5+lW7iP5SGlFKUaANoCUMIc3QefpVu4j+UhpRSlGgDaAlDCHN0Hn6VbuI/lIaUUpRoA2gJQwhzdB5+lW7iP5SGlFKUaANoCUMIc3QefpVu4j+UhpRSlGgDaAlDCHN0Hn6VbuI/lIaUUpRlLg==

$$$$
5g
     RDKit          3D

 37 39  0  0  0  0  0  0  0  0999 V2000
  -14.5341  -14.6449  -27.5575 C   0  0  0  0  0  0  0  0  0  0  0  0
  -15.0978  -15.5129  -26.6098 C   0  0  0  0  0  0  0  0  0  0  0  0
  -14.6077  -13.2658  -27.3516 C   0  0  0  0  0  0  0  0  0  0  0  0
  -15.7922  -14.9870  -25.5133 C   0  0  0  0  0  0  0  0  0  0  0  0
  -14.9372  -16.9036  -26.7424 N   0  0  0  0  0  0  0  0  0  0  0  0
  -15.2582  -12.7538  -26.2292 C   0  0  0  0  0  0  0  0  0  0  0  0
  -15.8700  -13.6113  -25.3131 C   0  0  0  0  0  0  0  0  0  0  0  0
  -16.4499  -15.9479  -24.5524 C   0  0  0  0  0  0  0  0  0  0  0  0
  -16.1281  -17.2371  -24.8190 N   0  0  0  0  0  0  0  0  0  0  0  0
  -17.2230  -15.6491  -23.6483 O   0  0  0  0  0  0  0  0  0  0  0  0
  -15.4171  -17.7439  -25.8846 C   0  0  0  0  0  0  0  0  0  0  0  0
  -15.2774  -19.2043  -26.0251 C   0  0  0  0  0  0  0  0  0  0  0  0
  -14.6087  -19.7171  -27.1419 C   0  0  0  0  0  0  0  0  0  0  0  0
  -14.4337  -21.0811  -27.2917 C   0  0  0  0  0  0  0  0  0  0  0  0
  -14.9292  -21.9658  -26.3338 C   0  0  0  0  0  0  0  0  0  0  0  0
  -15.6249  -21.4650  -25.2296 C   0  0  0  0  0  0  0  0  0  0  0  0
  -15.7964  -20.0948  -25.0737 C   0  0  0  0  0  0  0  0  0  0  0  0
  -14.5885  -23.4535  -26.4129 C   0  0  0  0  0  0  0  0  0  0  0  0
  -14.2371  -23.8914  -27.6993 O   0  0  0  0  0  0  0  0  0  0  0  0
  -15.7678  -24.3783  -26.0824 C   0  0  0  0  0  0  0  0  0  0  0  0
  -13.3532  -23.6779  -25.5405 C   0  0  0  0  0  0  0  0  0  0  0  0
  -13.7154  -15.2314  -28.9661 Cl  0  0  0  0  0  0  0  0  0  0  0  0
  -14.1531  -12.5859  -28.0597 H   0  0  0  0  0  0  0  0  0  0  0  0
  -15.2871  -11.6840  -26.0800 H   0  0  0  0  0  0  0  0  0  0  0  0
  -16.3869  -13.2090  -24.4531 H   0  0  0  0  0  0  0  0  0  0  0  0
  -16.5942  -17.8981  -24.2121 H   0  0  0  0  0  0  0  0  0  0  0  0
  -14.2015  -19.0645  -27.9021 H   0  0  0  0  0  0  0  0  0  0  0  0
  -13.8728  -21.4398  -28.1422 H   0  0  0  0  0  0  0  0  0  0  0  0
  -15.9928  -22.1311  -24.4624 H   0  0  0  0  0  0  0  0  0  0  0  0
  -16.3100  -19.7464  -24.1901 H   0  0  0  0  0  0  0  0  0  0  0  0
  -14.0256  -24.8281  -27.6507 H   0  0  0  0  0  0  0  0  0  0  0  0
  -16.6748  -24.0465  -26.5885 H   0  0  0  0  0  0  0  0  0  0  0  0
  -15.9524  -24.4080  -25.0103 H   0  0  0  0  0  0  0  0  0  0  0  0
  -15.5930  -25.4162  -26.3733 H   0  0  0  0  0  0  0  0  0  0  0  0
  -12.5499  -22.9849  -25.7929 H   0  0  0  0  0  0  0  0  0  0  0  0
  -12.9687  -24.6845  -25.6920 H   0  0  0  0  0  0  0  0  0  0  0  0
  -13.5732  -23.5575  -24.4788 H   0  0  0  0  0  0  0  0  0  0  0  0
  1  2  2  0
  1  3  1  0
  1 22  1  0
  2  4  1  0
  2  5  1  0
  3  6  2  0
  3 23  1  0
  4  7  2  0
  4  8  1  0
  5 11  2  0
  6  7  1  0
  6 24  1  0
  7 25  1  0
  8  9  1  0
  8 10  2  0
  9 11  1  0
  9 26  1  0
 11 12  1  0
 12 13  2  0
 12 17  1  0
 13 14  1  0
 13 27  1  0
 14 15  2  0
 14 28  1  0
 15 16  1  0
 15 18  1  0
 16 17  2  0
 16 29  1  0
 17 30  1  0
 18 19  1  0
 18 20  1  0
 18 21  1  0
 19 31  1  0
 20 32  1  0
 20 33  1  0
 20 34  1  0
 21 35  1  0
 21 36  1  0
 21 37  1  0
M  END
>  <Name>  (7) 
5g

>  <IC50[nM]>  (7) 
12

>  <atom.dprop.PartialCharge>  (7) 
0.032955974 0.22083889 -0.09466093 -0.1855474 -0.62597674 -0.15941158 -0.05177893 0.71280086 -0.5008412 -0.61966634 0.5703666 -0.16270065 -0.09975782 -0.10793646 -0.05364166 -0.10793646 -0.09975782 0.19713032 -0.5921473 -0.115978524 -0.115978524 -0.06853151 0.15169841 0.14157161 0.15933993 0.34264347 0.14297527 0.14056492 0.14056492 0.14297527 0.40081668 0.044167675 0.044167675 0.044167675 0.044167675 0.044167675 0.044167675

>  <experimental dG reference units>  (7) 
nM

>  <experimental dG reference field>  (7) 
IC50[nM]

>  <kJ/mol experimental dG>  (7) 
-45.49291258475232

>  <kcal/mol experimental dG>  (7) 
-10.873067061365276

>  <AmberAM1BCCCache>  (7) 
gASVGgMAAAAAAABdlCiMFm51bXB5Ll9jb3JlLm11bHRpYXJyYXmUjAZzY2FsYXKUk5SMBW51bXB5lIwFZHR5cGWUk5SMAmY4lImIh5RSlChLA4wBPJROTk5K/////0r/////SwB0lGJDCPUcWE17T80/lIaUUpRoA2gJQwid9IP9eqwBQJSGlFKUaANoCUMIBVQVgXJY8b+UhpRSlGgDaAlDCJygFMRNNwHAlIaUUpRoA2gJQwja3DHGN4ccwJSGlFKUaANoCUMIrlQ8C5CH+7+UhpRSlGgDaAlDCCDgM5JrPua/lIaUUpRoA2gJQwjJbzP/ibEgQJSGlFKUaANoCUMISBXzZ+42F8CUhpRSlGgDaAlDCEBkQnUYQR3AlIaUUpRoA2gJQwioNGaMx+gZQJSGlFKUaANoCUMIL5/kBmqk/L+UhpRSlGgDaAlDCEtPkSm6iPG/lIaUUpRoA2gJQwiGrgiKPvL3v5SGlFKUaANoCUMIly1gbRfW8L+UhpRSlGgDaAlDCIauCIo+8ve/lIaUUpRoA2gJQwhLT5Epuojxv5SGlFKUaANoCUMIvYAYBBQ2AkCUhpRSlGgDaAlDCAI3bb3T/hvAlIaUUpRoA2gJQwgiuai1WnDzv5SGlFKUaANoCUMIIrmotVpw87+UhpRSlGgDaAlDCFCDEJBI5+e/lIaUUpRoA2gJQwjyLppsknv8P5SGlFKUaANoCUMIUUuyeeRZ+z+UhpRSlGgDaAlDCO/67ammjv4/lIaUUpRoA2gJQwiKKjdTORoQQJSGlFKUaANoCUMIIT0mc7vq+z+UhpRSlGgDaAlDCDlEbPZPovs/lIaUUpRoA2gJQwg5RGz2T6L7P5SGlFKUaANoCUMIIT0mc7vq+z+UhpRSlGgDaAlDCNdhqRGHABNAlIaUUpRoA2gJQwi/i+rKEmHiP5SGlFKUaANoCUMIv4vqyhJh4j+UhpRSlGgDaAlDCL+L6soSYeI/lIaUUpRoA2gJQwi/i+rKEmHiP5SGlFKUaANoCUMIv4vqyhJh4j+UhpRSlGgDaAlDCL+L6soSYeI/lIaUUpRlLg==

$$$$
5f
     RDKit          3D

 37 39  0  0  0  0  0  0  0  0999 V2000
  -14.5642  -14.6384  -27.5273 C   0  0  0  0  0  0  0  0  0  0  0  0
  -15.1482  -15.5111  -26.6015 C   0  0  0  0  0  0  0  0  0  0  0  0
  -14.6521  -13.2595  -27.3238 C   0  0  0  0  0  0  0  0  0  0  0  0
  -15.8827  -14.9938  -25.5273 C   0  0  0  0  0  0  0  0  0  0  0  0
  -14.9607  -16.8981  -26.7338 N   0  0  0  0  0  0  0  0  0  0  0  0
  -15.3427  -12.7540  -26.2229 C   0  0  0  0  0  0  0  0  0  0  0  0
  -15.9780  -13.6190  -25.3283 C   0  0  0  0  0  0  0  0  0  0  0  0
  -16.5556  -15.9641  -24.5881 C   0  0  0  0  0  0  0  0  0  0  0  0
  -16.1974  -17.2475  -24.8411 N   0  0  0  0  0  0  0  0  0  0  0  0
  -17.3643  -15.6757  -23.7122 O   0  0  0  0  0  0  0  0  0  0  0  0
  -15.4538  -17.7454  -25.8883 C   0  0  0  0  0  0  0  0  0  0  0  0
  -15.2992  -19.2055  -26.0279 C   0  0  0  0  0  0  0  0  0  0  0  0
  -15.8269  -20.1007  -25.0850 C   0  0  0  0  0  0  0  0  0  0  0  0
  -15.6451  -21.4700  -25.2387 C   0  0  0  0  0  0  0  0  0  0  0  0
  -14.9295  -21.9653  -26.3318 C   0  0  0  0  0  0  0  0  0  0  0  0
  -14.4231  -21.0764  -27.2810 C   0  0  0  0  0  0  0  0  0  0  0  0
  -14.6078  -19.7133  -27.1328 C   0  0  0  0  0  0  0  0  0  0  0  0
  -14.5764  -23.4515  -26.4059 C   0  0  0  0  0  0  0  0  0  0  0  0
  -14.2382  -23.8893  -27.6950 O   0  0  0  0  0  0  0  0  0  0  0  0
  -15.7378  -24.3889  -26.0561 C   0  0  0  0  0  0  0  0  0  0  0  0
  -13.3308  -23.6575  -25.5430 C   0  0  0  0  0  0  0  0  0  0  0  0
  -13.8633  -15.1104  -28.5859 F   0  0  0  0  0  0  0  0  0  0  0  0
  -14.1704  -12.5789  -28.0136 H   0  0  0  0  0  0  0  0  0  0  0  0
  -15.3804  -11.6856  -26.0675 H   0  0  0  0  0  0  0  0  0  0  0  0
  -16.5260  -13.2239  -24.4843 H   0  0  0  0  0  0  0  0  0  0  0  0
  -16.6798  -17.9151  -24.2551 H   0  0  0  0  0  0  0  0  0  0  0  0
  -16.3566  -19.7562  -24.2096 H   0  0  0  0  0  0  0  0  0  0  0  0
  -16.0208  -22.1393  -24.4788 H   0  0  0  0  0  0  0  0  0  0  0  0
  -13.8443  -21.4300  -28.1202 H   0  0  0  0  0  0  0  0  0  0  0  0
  -14.1924  -19.0573  -27.8847 H   0  0  0  0  0  0  0  0  0  0  0  0
  -14.0150  -24.8240  -27.6454 H   0  0  0  0  0  0  0  0  0  0  0  0
  -16.6699  -24.0548  -26.5050 H   0  0  0  0  0  0  0  0  0  0  0  0
  -15.8750  -24.4385  -24.9779 H   0  0  0  0  0  0  0  0  0  0  0  0
  -15.5735  -25.4220  -26.3718 H   0  0  0  0  0  0  0  0  0  0  0  0
  -12.5376  -22.9611  -25.8134 H   0  0  0  0  0  0  0  0  0  0  0  0
  -12.9378  -24.6629  -25.6817 H   0  0  0  0  0  0  0  0  0  0  0  0
  -13.5408  -23.5212  -24.4800 H   0  0  0  0  0  0  0  0  0  0  0  0
  1  2  2  0
  1  3  1  0
  1 22  1  0
  2  4  1  0
  2  5  1  0
  3  6  2  0
  3 23  1  0
  4  7  2  0
  4  8  1  0
  5 11  2  0
  6  7  1  0
  6 24  1  0
  7 25  1  0
  8  9  1  0
  8 10  2  0
  9 11  1  0
  9 26  1  0
 11 12  1  0
 12 13  2  0
 12 17  1  0
 13 14  1  0
 13 27  1  0
 14 15  2  0
 14 28  1  0
 15 16  1  0
 15 18  1  0
 16 17  2  0
 16 29  1  0
 17 30  1  0
 18 19  1  0
 18 20  1  0
 18 21  1  0
 19 31  1  0
 20 32  1  0
 20 33  1  0
 20 34  1  0
 21 35  1  0
 21 36  1  0
 21 37  1  0
M  END
>  <Name>  (8) 
5f

>  <IC50[nM]>  (8) 
30

>  <atom.dprop.PartialCharge>  (8) 
0.15044458 0.1754875 -0.14915848 -0.18264519 -0.60875356 -0.13056561 -0.068768315 0.7104766 -0.49955052 -0.61545753 0.564419 -0.16287482 -0.09915568 -0.107622534 -0.053327747 -0.107622534 -0.09915568 0.1974442 -0.59183335 -0.115664594 -0.115664594 -0.12948598 0.15505566 0.1434448 0.16106373 0.34311435 0.14328921 0.14087886 0.14087886 0.14328921 0.40113062 0.04448159 0.04448159 0.04448159 0.04448159 0.04448159 0.04448159

>  <experimental dG reference units>  (8) 
nM

>  <experimental dG reference field>  (8) 
IC50[nM]

>  <kJ/mol experimental dG>  (8) 
-43.20735971568064

>  <kcal/mol experimental dG>  (8) 
-10.326806815411242

>  <AmberAM1BCCCache>  (8) 
gASVGgMAAAAAAABdlCiMFm51bXB5Ll9jb3JlLm11bHRpYXJyYXmUjAZzY2FsYXKUk5SMBW51bXB5lIwFZHR5cGWUk5SMAmY4lImIh5RSlChLA4wBPJROTk5K/////0r/////SwB0lGJDCBDfGTOF0fk/lIaUUpRoA2gJQwj1oyftBC38P5SGlFKUaANoCUMIMnhZKlnW+b+UhpRSlGgDaAlDCF982lz+y/+/lIaUUpRoA2gJQwijHrOKVWMcwJSGlFKUaANoCUMIwKL9PdQj+L+UhpRSlGgDaAlDCLg6pbj8Sey/lIaUUpRoA2gJQwhB0bRIV6sgQJSGlFKUaANoCUMIhVPR6kE3F8CUhpRSlGgDaAlDCKyjAQ5aNR3AlIaUUpRoA2gJQwj3+SpLPsQZQJSGlFKUaANoCUMI3pzhaXB1/L+UhpRSlGgDaAlDCD9ICjUIivG/lIaUUpRoA2gJQwjXqUPBaNv3v5SGlFKUaANoCUMIiybZeGXX8L+UhpRSlGgDaAlDCNepQ8Fo2/e/lIaUUpRoA2gJQwg/SAo1CIrxv5SGlFKUaANoCUMIQgRc/mw1AkCUhpRSlGgDaAlDCEB1S0An/xvAlIaUUpRoA2gJQwgWsiHBqHHzv5SGlFKUaANoCUMIFrIhwahx87+UhpRSlGgDaAlDCLgqWqsKzfa/lIaUUpRoA2gJQwjOJ5VaGwv9P5SGlFKUaANoCUMIok21Ft6I+z+UhpRSlGgDaAlDCIb4bO/n7f4/lIaUUpRoA2gJQwhO7FjQ5RkQQJSGlFKUaANoCUMILUStZ23p+z+UhpRSlGgDaAlDCEVL8+oBofs/lIaUUpRoA2gJQwhFS/PqAaH7P5SGlFKUaANoCUMILUStZ23p+z+UhpRSlGgDaAlDCJojy44zABNAlIaUUpRoA2gJQwjXmfizdl7iP5SGlFKUaANoCUMI15n4s3Ze4j+UhpRSlGgDaAlDCNeZ+LN2XuI/lIaUUpRoA2gJQwjXmfizdl7iP5SGlFKUaANoCUMI15n4s3Ze4j+UhpRSlGgDaAlDCNeZ+LN2XuI/lIaUUpRlLg==

$$$$
5l
     RDKit          3D

 37 39  0  0  0  0  0  0  0  0999 V2000
  -15.3002  -19.2006  -26.0265 C   0  0  0  0  0  0  0  0  0  0  0  0
  -15.7139  -20.0866  -25.0199 C   0  0  0  0  0  0  0  0  0  0  0  0
  -14.7328  -19.7204  -27.1959 C   0  0  0  0  0  0  0  0  0  0  0  0
  -15.5262  -21.4548  -25.1704 C   0  0  0  0  0  0  0  0  0  0  0  0
  -14.5510  -21.0858  -27.3440 C   0  0  0  0  0  0  0  0  0  0  0  0
  -14.9761  -16.8867  -26.7340 N   0  0  0  0  0  0  0  0  0  0  0  0
  -14.9308  -21.9629  -26.3290 C   0  0  0  0  0  0  0  0  0  0  0  0
  -14.5881  -23.4511  -26.4179 C   0  0  0  0  0  0  0  0  0  0  0  0
  -16.5444  -15.9689  -24.5640 C   0  0  0  0  0  0  0  0  0  0  0  0
  -16.1761  -17.2463  -24.8220 N   0  0  0  0  0  0  0  0  0  0  0  0
  -15.4513  -17.7394  -25.8850 C   0  0  0  0  0  0  0  0  0  0  0  0
  -17.3758  -15.7040  -23.6992 O   0  0  0  0  0  0  0  0  0  0  0  0
  -15.7761  -24.3593  -26.0992 C   0  0  0  0  0  0  0  0  0  0  0  0
  -14.2360  -23.8967  -27.6992 O   0  0  0  0  0  0  0  0  0  0  0  0
  -13.3505  -23.6941  -25.5581 C   0  0  0  0  0  0  0  0  0  0  0  0
  -15.1508  -15.4985  -26.5840 C   0  0  0  0  0  0  0  0  0  0  0  0
  -15.8726  -14.9888  -25.4979 C   0  0  0  0  0  0  0  0  0  0  0  0
  -15.9461  -13.6145  -25.2800 C   0  0  0  0  0  0  0  0  0  0  0  0
  -15.3326  -12.7448  -26.1831 C   0  0  0  0  0  0  0  0  0  0  0  0
  -14.6579  -13.2427  -27.2994 C   0  0  0  0  0  0  0  0  0  0  0  0
  -14.5674  -14.6209  -27.5072 C   0  0  0  0  0  0  0  0  0  0  0  0
  -13.8810  -15.0871  -28.5782 F   0  0  0  0  0  0  0  0  0  0  0  0
  -16.5760  -13.1269  -24.1896 F   0  0  0  0  0  0  0  0  0  0  0  0
  -16.1615  -19.7384  -24.0998 H   0  0  0  0  0  0  0  0  0  0  0  0
  -14.4118  -19.0716  -27.9995 H   0  0  0  0  0  0  0  0  0  0  0  0
  -15.8081  -22.1136  -24.3616 H   0  0  0  0  0  0  0  0  0  0  0  0
  -14.0716  -21.4524  -28.2397 H   0  0  0  0  0  0  0  0  0  0  0  0
  -16.6579  -17.9163  -24.2374 H   0  0  0  0  0  0  0  0  0  0  0  0
  -16.6617  -24.0400  -26.6490 H   0  0  0  0  0  0  0  0  0  0  0  0
  -16.0045  -24.3593  -25.0354 H   0  0  0  0  0  0  0  0  0  0  0  0
  -15.5956  -25.4051  -26.3563 H   0  0  0  0  0  0  0  0  0  0  0  0
  -14.1133  -24.8528  -27.6650 H   0  0  0  0  0  0  0  0  0  0  0  0
  -12.5490  -23.0067  -25.8239 H   0  0  0  0  0  0  0  0  0  0  0  0
  -12.9761  -24.7077  -25.6991 H   0  0  0  0  0  0  0  0  0  0  0  0
  -13.5598  -23.5591  -24.4960 H   0  0  0  0  0  0  0  0  0  0  0  0
  -15.3724  -11.6781  -26.0178 H   0  0  0  0  0  0  0  0  0  0  0  0
  -14.1860  -12.5585  -27.9922 H   0  0  0  0  0  0  0  0  0  0  0  0
  1  2  2  0
  1  3  1  0
  1 11  1  0
  2  4  1  0
  2 24  1  0
  3  5  2  0
  3 25  1  0
  4  7  2  0
  4 26  1  0
  5  7  1  0
  5 27  1  0
  6 11  2  0
  6 16  1  0
  7  8  1  0
  8 13  1  0
  8 14  1  0
  8 15  1  0
  9 10  1  0
  9 12  2  0
  9 17  1  0
 10 11  1  0
 10 28  1  0
 13 29  1  0
 13 30  1  0
 13 31  1  0
 14 32  1  0
 15 33  1  0
 15 34  1  0
 15 35  1  0
 16 17  2  0
 16 21  1  0
 17 18  1  0
 18 19  2  0
 18 23  1  0
 19 20  1  0
 19 36  1  0
 20 21  2  0
 20 37  1  0
 21 22  1  0
M  END
>  <Name>  (9) 
5l

>  <IC50[nM]>  (9) 
40

>  <atom.dprop.PartialCharge>  (9) 
-0.16211471 -0.098904826 -0.098904826 -0.10737167 -0.10737167 -0.6060425 -0.05307689 0.19769505 0.7165822 -0.5038197 0.56698364 -0.6038298 -0.115413725 -0.5915825 -0.115413725 0.19649558 -0.22104168 0.20587921 -0.17456816 -0.12833017 0.1329268 -0.1263392 -0.105188616 0.14354008 0.14354008 0.14112972 0.14112972 0.3452926 0.04473242 0.04473242 0.04473242 0.4013815 0.04473242 0.04473242 0.04473242 0.15802704 0.16031696

>  <experimental dG reference units>  (9) 
nM

>  <experimental dG reference field>  (9) 
IC50[nM]

>  <kJ/mol experimental dG>  (9) 
-42.489778970617564

>  <kcal/mol experimental dG>  (9) 
-10.155300901199226

>  <AmberAM1BCCCache>  (9) 
gASVGgMAAAAAAABdlCiMFm51bXB5Ll9jb3JlLm11bHRpYXJyYXmUjAZzY2FsYXKUk5SMBW51bXB5lIwFZHR5cGWUk5SMAmY4lImIh5RSlChLA4wBPJROTk5K/////0r/////SwB0lGJDCCJ3P8tyaf2/lIaUUpRoA2gJQwiyMPScM+3xv5SGlFKUaANoCUMIsjD0nDPt8b+UhpRSlGgDaAlDCHu6DxEzpPa/lIaUUpRoA2gJQwh7ug8RM6T2v5SGlFKUaANoCUMI1pJI93m4HMCUhpRSlGgDaAlDCLihz8kt/uK/lIaUUpRoA2gJQwjxCCHHQkwCQJSGlFKUaANoCUMI1pH1rxW3IECUhpRSlGgDaAlDCP/PjfDoNxfAlIaUUpRoA2gJQwhOb+I+blQaQJSGlFKUaANoCUMIyjdSyZpEHMCUhpRSlGgDaAlDCOFOy7BO2fa/lIaUUpRoA2gJQwjQ66LYJzwcwJSGlFKUaANoCUMI4U7LsE7Z9r+UhpRSlGgDaAlDCHaUIHZD0QBAlIaUUpRoA2gJQwgdz420dQ0EwJSGlFKUaANoCUMI6HYnUwP/AUCUhpRSlGgDaAlDCDVb2SHMgQDAlIaUUpRoA2gJQwgK5bMkrvH0v5SGlFKUaANoCUMIRkJwQ99p9j+UhpRSlGgDaAlDCIsvXCCIDva/lIaUUpRoA2gJQwgZWgA0A1z0v5SGlFKUaANoCUMIolR9fK3O+z+UhpRSlGgDaAlDCKJUfXytzvs/lIaUUpRoA2gJQwi4QW0ezI/8P5SGlFKUaANoCUMIuEFtHsyP/D+UhpRSlGgDaAlDCHZt2p5iMRBAlIaUUpRoA2gJQwh8vxw1r/jhP5SGlFKUaANoCUMIfL8cNa/44T+UhpRSlGgDaAlDCHy/HDWv+OE/lIaUUpRoA2gJQwiUo2tHwiMTQJSGlFKUaANoCUMIfL8cNa/44T+UhpRSlGgDaAlDCHy/HDWv+OE/lIaUUpRoA2gJQwh8vxw1r/jhP5SGlFKUaANoCUMIzBQH33Ra/j+UhpRSlGgDaAlDCEEeD47l+f0/lIaUUpRlLg==

$$$$
1a
     RDKit          3D

 27 29  0  0  0  0  0  0  0  0999 V2000
  -15.3524  -19.2206  -25.9684 C   0  0  0  0  0  0  0  0  0  0  0  0
  -14.6526  -19.7081  -27.0823 C   0  0  0  0  0  0  0  0  0  0  0  0
  -15.8555  -20.1235  -25.0241 C   0  0  0  0  0  0  0  0  0  0  0  0
  -14.4541  -21.0636  -27.2485 C   0  0  0  0  0  0  0  0  0  0  0  0
  -15.6357  -21.4854  -25.1840 C   0  0  0  0  0  0  0  0  0  0  0  0
  -15.0526  -16.9445  -26.6871 N   0  0  0  0  0  0  0  0  0  0  0  0
  -14.9347  -21.9631  -26.2988 C   0  0  0  0  0  0  0  0  0  0  0  0
  -15.2162  -15.5610  -26.5929 C   0  0  0  0  0  0  0  0  0  0  0  0
  -15.9031  -15.0059  -25.5037 C   0  0  0  0  0  0  0  0  0  0  0  0
  -15.4462  -12.8187  -26.3599 C   0  0  0  0  0  0  0  0  0  0  0  0
  -14.7773  -13.3552  -27.4525 C   0  0  0  0  0  0  0  0  0  0  0  0
  -16.0203  -13.6235  -25.3815 C   0  0  0  0  0  0  0  0  0  0  0  0
  -14.6768  -14.7359  -27.5934 C   0  0  0  0  0  0  0  0  0  0  0  0
  -16.5313  -15.9392  -24.4895 C   0  0  0  0  0  0  0  0  0  0  0  0
  -16.2584  -17.2435  -24.7671 N   0  0  0  0  0  0  0  0  0  0  0  0
  -15.5317  -17.7669  -25.8203 C   0  0  0  0  0  0  0  0  0  0  0  0
  -17.2406  -15.6098  -23.5374 O   0  0  0  0  0  0  0  0  0  0  0  0
  -14.2525  -19.0464  -27.8382 H   0  0  0  0  0  0  0  0  0  0  0  0
  -16.3981  -19.7943  -24.1510 H   0  0  0  0  0  0  0  0  0  0  0  0
  -13.8938  -21.4078  -28.1049 H   0  0  0  0  0  0  0  0  0  0  0  0
  -15.9903  -22.1635  -24.4209 H   0  0  0  0  0  0  0  0  0  0  0  0
  -14.3604  -12.6891  -28.1964 H   0  0  0  0  0  0  0  0  0  0  0  0
  -16.5458  -13.1713  -24.5494 H   0  0  0  0  0  0  0  0  0  0  0  0
  -16.7352  -17.8915  -24.1540 H   0  0  0  0  0  0  0  0  0  0  0  0
  -14.1941  -15.1755  -28.4537 H   0  0  0  0  0  0  0  0  0  0  0  0
  -15.5319  -11.7476  -26.2520 H   0  0  0  0  0  0  0  0  0  0  0  0
  -14.7660  -23.0224  -26.4244 H   0  0  0  0  0  0  0  0  0  0  0  0
  1  2  2  0
  1  3  1  0
  1 16  1  0
  2  4  1  0
  2 18  1  0
  3  5  2  0
  3 19  1  0
  4  7  2  0
  4 20  1  0
  5  7  1  0
  5 21  1  0
  6  8  1  0
  6 16  2  0
  7 27  1  0
  8  9  2  0
  8 13  1  0
  9 12  1  0
  9 14  1  0
 10 11  1  0
 10 12  2  0
 10 26  1  0
 11 13  2  0
 11 22  1  0
 12 23  1  0
 13 25  1  0
 14 15  1  0
 14 17  2  0
 15 16  1  0
 15 24  1  0
M  END
>  <Name>  (10) 
1a

>  <IC50[nM]>  (10) 
540

>  <atom.dprop.PartialCharge>  (10) 
-0.16664375 -0.09535618 -0.09535618 -0.1327881 -0.1327881 -0.6185712 -0.10349952 0.19513322 -0.18887328 -0.16087607 -0.09176155 -0.055175923 -0.12507656 0.70814466 -0.50379807 0.5631604 -0.62240964 0.1442712 0.1442712 0.13878089 0.13878089 0.13544147 0.15634339 0.34250015 0.15203166 0.13936895 0.13474585

>  <experimental dG reference units>  (10) 
nM

>  <experimental dG reference field>  (10) 
IC50[nM]

>  <kJ/mol experimental dG>  (10) 
-35.99775119936246

>  <kcal/mol experimental dG>  (10) 
-8.603669024704221

>  <AmberAM1BCCCache>  (10) 
gASVXAIAAAAAAABdlCiMFm51bXB5Ll9jb3JlLm11bHRpYXJyYXmUjAZzY2FsYXKUk5SMBW51bXB5lIwFZHR5cGWUk5SMAmY4lImIh5RSlChLA4wBPJROTk5K/////0r/////SwB0lGJDCL8OG7P4Ufu/lIaUUpRoA2gJQwjZpHH00j/xv5SGlFKUaANoCUMI2aRx9NI/8b+UhpRSlGgDaAlDCD/EcrceNfq/lIaUUpRoA2gJQwg/xHK3HjX6v5SGlFKUaANoCUMIXk98cw7ZHcCUhpRSlGgDaAlDCANl+1aay/O/lIaUUpRoA2gJQwioyDKCAN0BQJSGlFKUaANoCUMIkLIPXlIQAsCUhpRSlGgDaAlDCFF9tpZRCf2/lIaUUpRoA2gJQwgGmacZhrjxv5SGlFKUaANoCUMIgYZw0OTc5b+UhpRSlGgDaAlDCHEGq4Azkfe/lIaUUpRoA2gJQwhjpU9rorcgQJSGlFKUaANoCUMIWaU2OAVbF8CUhpRSlGgDaAlDCMSYWOFjPRpAlIaUUpRoA2gJQwjz8cMZU30dwJSGlFKUaANoCUMIZfMPg++6+z+UhpRSlGgDaAlDCGXzD4Pvuvs/lIaUUpRoA2gJQwg6GTA/sjj6P5SGlFKUaANoCUMIOhkwP7I4+j+UhpRSlGgDaAlDCK8iOO4i2Pk/lIaUUpRoA2gJQwhiv2PAA879P5SGlFKUaANoCUMICjwtidmjD0CUhpRSlGgDaAlDCHvg/yQOfPw/lIaUUpRoA2gJQwiAFKzn+Wj6P5SGlFKUaANoCUMI9R20lmoI+j+UhpRSlGUu

$$$$
5j
     RDKit          3D

 37 39  0  0  0  0  0  0  0  0999 V2000
  -14.7191  -14.7437  -27.6392 C   0  0  0  0  0  0  0  0  0  0  0  0
  -15.2100  -15.5576  -26.6217 C   0  0  0  0  0  0  0  0  0  0  0  0
  -14.8546  -13.3638  -27.5278 C   0  0  0  0  0  0  0  0  0  0  0  0
  -15.8634  -15.0119  -25.5100 C   0  0  0  0  0  0  0  0  0  0  0  0
  -15.0155  -16.9311  -26.7330 N   0  0  0  0  0  0  0  0  0  0  0  0
  -15.4818  -12.8157  -26.4108 C   0  0  0  0  0  0  0  0  0  0  0  0
  -15.9953  -13.6326  -25.3960 C   0  0  0  0  0  0  0  0  0  0  0  0
  -16.4010  -15.9560  -24.4529 C   0  0  0  0  0  0  0  0  0  0  0  0
  -16.1237  -17.2489  -24.7503 N   0  0  0  0  0  0  0  0  0  0  0  0
  -17.0404  -15.6548  -23.4436 O   0  0  0  0  0  0  0  0  0  0  0  0
  -15.4465  -17.7571  -25.8425 C   0  0  0  0  0  0  0  0  0  0  0  0
  -15.2799  -19.2057  -25.9856 C   0  0  0  0  0  0  0  0  0  0  0  0
  -15.7256  -20.0944  -24.9990 C   0  0  0  0  0  0  0  0  0  0  0  0
  -15.5412  -21.4568  -25.1662 C   0  0  0  0  0  0  0  0  0  0  0  0
  -14.9164  -21.9424  -26.3174 C   0  0  0  0  0  0  0  0  0  0  0  0
  -14.4855  -21.0603  -27.3040 C   0  0  0  0  0  0  0  0  0  0  0  0
  -14.6633  -19.7033  -27.1404 C   0  0  0  0  0  0  0  0  0  0  0  0
  -14.5856  -23.4201  -26.4266 C   0  0  0  0  0  0  0  0  0  0  0  0
  -14.2271  -23.8386  -27.7106 O   0  0  0  0  0  0  0  0  0  0  0  0
  -15.5915  -11.4816  -26.3335 F   0  0  0  0  0  0  0  0  0  0  0  0
  -16.6030  -13.1004  -24.3145 F   0  0  0  0  0  0  0  0  0  0  0  0
  -15.7860  -24.3161  -26.1231 C   0  0  0  0  0  0  0  0  0  0  0  0
  -13.3500  -23.6601  -25.5696 C   0  0  0  0  0  0  0  0  0  0  0  0
  -14.2230  -15.1759  -28.4962 H   0  0  0  0  0  0  0  0  0  0  0  0
  -14.4673  -12.7104  -28.2984 H   0  0  0  0  0  0  0  0  0  0  0  0
  -16.5489  -17.9042  -24.1082 H   0  0  0  0  0  0  0  0  0  0  0  0
  -16.1937  -19.7543  -24.0872 H   0  0  0  0  0  0  0  0  0  0  0  0
  -15.8509  -22.1245  -24.3761 H   0  0  0  0  0  0  0  0  0  0  0  0
  -13.9755  -21.4159  -28.1877 H   0  0  0  0  0  0  0  0  0  0  0  0
  -14.3101  -19.0466  -27.9244 H   0  0  0  0  0  0  0  0  0  0  0  0
  -14.0222  -24.7810  -27.6785 H   0  0  0  0  0  0  0  0  0  0  0  0
  -16.6618  -23.9901  -26.6844 H   0  0  0  0  0  0  0  0  0  0  0  0
  -16.0289  -24.3088  -25.0631 H   0  0  0  0  0  0  0  0  0  0  0  0
  -15.6110  -25.3634  -26.3774 H   0  0  0  0  0  0  0  0  0  0  0  0
  -12.5475  -22.9733  -25.8340 H   0  0  0  0  0  0  0  0  0  0  0  0
  -12.9786  -24.6668  -25.7243 H   0  0  0  0  0  0  0  0  0  0  0  0
  -13.5559  -23.5311  -24.5063 H   0  0  0  0  0  0  0  0  0  0  0  0
  1  2  2  0
  1  3  1  0
  1 24  1  0
  2  4  1  0
  2  5  1  0
  3  6  2  0
  3 25  1  0
  4  7  2  0
  4  8  1  0
  5 11  2  0
  6  7  1  0
  6 20  1  0
  7 21  1  0
  8  9  1  0
  8 10  2  0
  9 11  1  0
  9 26  1  0
 11 12  1  0
 12 13  2  0
 12 17  1  0
 13 14  1  0
 13 27  1  0
 14 15  2  0
 14 28  1  0
 15 16  1  0
 15 18  1  0
 16 17  2  0
 16 29  1  0
 17 30  1  0
 18 19  1  0
 18 22  1  0
 18 23  1  0
 19 31  1  0
 22 32  1  0
 22 33  1  0
 22 34  1  0
 23 35  1  0
 23 36  1  0
 23 37  1  0
M  END
>  <Name>  (11) 
5j

>  <IC50[nM]>  (11) 
7.5

>  <atom.dprop.PartialCharge>  (11) 
-0.11166766 0.21597616 -0.112934485 -0.21327293 -0.6167016 0.06309439 0.18072328 0.7151873 -0.5022622 -0.60378575 0.5670253 -0.16543564 -0.09891324 -0.10731697 -0.05302219 -0.10731697 -0.09891324 0.19774973 -0.59152776 -0.12693974 -0.10092003 -0.11535902 -0.11535902 0.16055417 0.15621744 0.34540296 0.1435948 0.14118442 0.14118442 0.1435948 0.4014362 0.044787154 0.044787154 0.044787154 0.044787154 0.044787154 0.044787154

>  <experimental dG reference units>  (11) 
nM

>  <experimental dG reference field>  (11) 
IC50[nM]

>  <kJ/mol experimental dG>  (11) 
-46.66526771825838

>  <kcal/mol experimental dG>  (11) 
-11.153266663063665

>  <AmberAM1BCCCache>  (11) 
gASVGgMAAAAAAABdlCiMFm51bXB5Ll9jb3JlLm11bHRpYXJyYXmUjAZzY2FsYXKUk5SMBW51bXB5lIwFZHR5cGWUk5SMAmY4lImIh5RSlChLA4wBPJROTk5K/////0r/////SwB0lGJDCCf7stscPfa/lIaUUpRoA2gJQwg0x2hRd88CQJSGlFKUaANoCUMI5jPj9cD587+UhpRSlGgDaAlDCFtomRZWIgTAlIaUUpRoA2gJQwijU4RNnTsdwJSGlFKUaANoCUMIiU2MVTU/5j+UhpRSlGgDaAlDCPMMRFxWBwBAlIaUUpRoA2gJQwjvKoKM5rcgQJSGlFKUaANoCUMIzJ10N0c2F8CUhpRSlGgDaAlDCPQH+zvVKhzAlIaUUpRoA2gJQwiAofv3D1YaQJSGlFKUaANoCUMIWa7a5uti/b+UhpRSlGgDaAlDCC9jC2H0FvK/lIaUUpRoA2gJQwgQ9GxYiIX2v5SGlFKUaANoCUMIJxAGASDx4r+UhpRSlGgDaAlDCBD0bFiIhfa/lIaUUpRoA2gJQwgvYwth9Bbyv5SGlFKUaANoCUMIVm1TOYZPAkCUhpRSlGgDaAlDCG+4qAmYRhzAlIaUUpRoA2gJQwhiSt8uryn3v5SGlFKUaANoCUMIVMVHEmhC8r+UhpRSlGgDaAlDCBmGZszH0va/lIaUUpRoA2gJQwgZhmbMx9L2v5SGlFKUaANoCUMIZs/fvNLx/j+UhpRSlGgDaAlDCAvnc3JsAP4/lIaUUpRoA2gJQwipn/NXBDMQQJSGlFKUaANoCUMIJSJmuOyk+z+UhpRSlGgDaAlDCIEK0gJTlvw/lIaUUpRoA2gJQwiBCtICU5b8P5SGlFKUaANoCUMIJSJmuOyk+z+UhpRSlGgDaAlDCMbVhABkJRNAlIaUUpRoA2gJQwhpnrDdnPXhP5SGlFKUaANoCUMIaZ6w3Zz14T+UhpRSlGgDaAlDCGmesN2c9eE/lIaUUpRoA2gJQwhpnrDdnPXhP5SGlFKUaANoCUMIaZ6w3Zz14T+UhpRSlGgDaAlDCGmesN2c9eE/lIaUUpRlLg==

$$$$
5k
     RDKit          3D

 37 39  0  0  0  0  0  0  0  0999 V2000
  -14.4532  -14.7787  -27.4312 C   0  0  0  0  0  0  0  0  0  0  0  0
  -15.1418  -15.5967  -26.5280 C   0  0  0  0  0  0  0  0  0  0  0  0
  -14.5909  -13.3992  -27.3291 C   0  0  0  0  0  0  0  0  0  0  0  0
  -15.9826  -15.0410  -25.5537 C   0  0  0  0  0  0  0  0  0  0  0  0
  -14.9735  -16.9774  -26.6084 N   0  0  0  0  0  0  0  0  0  0  0  0
  -15.4131  -12.8584  -26.3442 C   0  0  0  0  0  0  0  0  0  0  0  0
  -16.1201  -13.6612  -25.4553 C   0  0  0  0  0  0  0  0  0  0  0  0
  -16.7396  -15.9720  -24.6306 C   0  0  0  0  0  0  0  0  0  0  0  0
  -16.4336  -17.2753  -24.8698 N   0  0  0  0  0  0  0  0  0  0  0  0
  -17.5633  -15.6368  -23.7781 O   0  0  0  0  0  0  0  0  0  0  0  0
  -15.5834  -17.7992  -25.8267 C   0  0  0  0  0  0  0  0  0  0  0  0
  -15.4138  -19.2509  -25.9685 C   0  0  0  0  0  0  0  0  0  0  0  0
  -15.7847  -20.1437  -24.9565 C   0  0  0  0  0  0  0  0  0  0  0  0
  -15.5471  -21.5021  -25.1160 C   0  0  0  0  0  0  0  0  0  0  0  0
  -14.9582  -21.9835  -26.2915 C   0  0  0  0  0  0  0  0  0  0  0  0
  -14.6239  -21.0987  -27.3099 C   0  0  0  0  0  0  0  0  0  0  0  0
  -14.8497  -19.7472  -27.1519 C   0  0  0  0  0  0  0  0  0  0  0  0
  -14.5900  -23.4561  -26.4138 C   0  0  0  0  0  0  0  0  0  0  0  0
  -14.2444  -23.8763  -27.7078 O   0  0  0  0  0  0  0  0  0  0  0  0
  -13.6455  -15.3006  -28.3854 F   0  0  0  0  0  0  0  0  0  0  0  0
  -15.5384  -11.5358  -26.2611 F   0  0  0  0  0  0  0  0  0  0  0  0
  -15.7758  -24.3565  -26.1019 C   0  0  0  0  0  0  0  0  0  0  0  0
  -13.3488  -23.6919  -25.5595 C   0  0  0  0  0  0  0  0  0  0  0  0
  -14.0597  -12.7443  -28.0056 H   0  0  0  0  0  0  0  0  0  0  0  0
  -16.7581  -13.2074  -24.7085 H   0  0  0  0  0  0  0  0  0  0  0  0
  -16.9858  -17.9241  -24.3249 H   0  0  0  0  0  0  0  0  0  0  0  0
  -16.2302  -19.8058  -24.0320 H   0  0  0  0  0  0  0  0  0  0  0  0
  -15.7900  -22.1726  -24.3047 H   0  0  0  0  0  0  0  0  0  0  0  0
  -14.1524  -21.4456  -28.2174 H   0  0  0  0  0  0  0  0  0  0  0  0
  -14.5605  -19.0924  -27.9627 H   0  0  0  0  0  0  0  0  0  0  0  0
  -14.0247  -24.8146  -27.6747 H   0  0  0  0  0  0  0  0  0  0  0  0
  -16.6761  -24.0007  -26.6015 H   0  0  0  0  0  0  0  0  0  0  0  0
  -15.9684  -24.3857  -25.0310 H   0  0  0  0  0  0  0  0  0  0  0  0
  -15.6227  -25.3956  -26.4010 H   0  0  0  0  0  0  0  0  0  0  0  0
  -12.5457  -23.0123  -25.8405 H   0  0  0  0  0  0  0  0  0  0  0  0
  -12.9804  -24.7062  -25.6843 H   0  0  0  0  0  0  0  0  0  0  0  0
  -13.5498  -23.5431  -24.4981 H   0  0  0  0  0  0  0  0  0  0  0  0
  1  2  2  0
  1  3  1  0
  1 20  1  0
  2  4  1  0
  2  5  1  0
  3  6  2  0
  3 24  1  0
  4  7  2  0
  4  8  1  0
  5 11  2  0
  6  7  1  0
  6 21  1  0
  7 25  1  0
  8  9  1  0
  8 10  2  0
  9 11  1  0
  9 26  1  0
 11 12  1  0
 12 13  2  0
 12 17  1  0
 13 14  1  0
 13 27  1  0
 14 15  2  0
 14 28  1  0
 15 16  1  0
 15 18  1  0
 16 17  2  0
 16 29  1  0
 17 30  1  0
 18 19  1  0
 18 22  1  0
 18 23  1  0
 19 31  1  0
 22 32  1  0
 22 33  1  0
 22 34  1  0
 23 35  1  0
 23 36  1  0
 23 37  1  0
M  END
>  <Name>  (12) 
5k

>  <IC50[nM]>  (12) 
9.1999999999999993

>  <atom.dprop.PartialCharge>  (12) 
0.1643457 0.166131 -0.18467404 -0.14954206 -0.60544354 0.13428225 -0.11065538 0.70295405 -0.49832898 -0.6065239 0.56767833 -0.16270041 -0.09898128 -0.10744813 -0.053153347 -0.10744813 -0.09898128 0.19761859 -0.5916589 -0.12471548 -0.13552654 -0.11549018 -0.11549018 0.17220539 0.17971829 0.3435534 0.14346363 0.14105326 0.14105326 0.14346363 0.40130505 0.044655994 0.044655994 0.044655994 0.044655994 0.044655994 0.044655994

>  <experimental dG reference units>  (12) 
nM

>  <experimental dG reference field>  (12) 
IC50[nM]

>  <kJ/mol experimental dG>  (12) 
-46.155670169913506

>  <kcal/mol experimental dG>  (12) 
-11.03146992588755

>  <AmberAM1BCCCache>  (12) 
gASVGgMAAAAAAABdlCiMFm51bXB5Ll9jb3JlLm11bHRpYXJyYXmUjAZzY2FsYXKUk5SMBW51bXB5lIwFZHR5cGWUk5SMAmY4lImIh5RSlChLA4wBPJROTk5K/////0r/////SwB0lGJDCM5vPn5xFf8/lIaUUpRoA2gJQwjX8ezkvuX5P5SGlFKUaANoCUMIOc6NeALjAMCUhpRSlGgDaAlDCELPnQTAqfu/lIaUUpRoA2gJQwjm3PBUGkAcwJSGlFKUaANoCUMIkxDHHe2r+D+UhpRSlGgDaAlDCM/PoCnTg/W/lIaUUpRoA2gJQwh99FcP0aQgQJSGlFKUaANoCUMImRAunxggF8CUhpRSlGgDaAlDCHpl4hnp7RzAlIaUUpRoA2gJQwi0O+2AeecZQJSGlFKUaANoCUMIinnAhTEK/b+UhpRSlGgDaAlDCOwk6VDJHvK/lIaUUpRoA2gJQwjNtUpIXY32v5SGlFKUaANoCUMIoZPB4MkA47+UhpRSlGgDaAlDCM21Skhdjfa/lIaUUpRoA2gJQwjsJOlQyR7yv5SGlFKUaANoCUMIeIxkwZtLAkCUhpRSlGgDaAlDCA4qgVt7PBzAlIaUUpRoA2gJQwhpO+WJt071v5SGlFKUaANoCUMIv++kETJT+L+UhpRSlGgDaAlDCNZHRLyc2va/lIaUUpRoA2gJQwjWR0S8nNr2v5SGlFKUaANoCUMIpvj039UFAECUhpRSlGgDaAlDCF7jIlYY3wBAlIaUUpRoA2gJQwg5L/wbDzEQQJSGlFKUaANoCUMIDF7GnDu1+z+UhpRSlGgDaAlDCCJLtj5advw/lIaUUpRoA2gJQwgiS7Y+Wnb8P5SGlFKUaANoCUMIDF7GnDu1+z+UhpRSlGgDaAlDCFdljcRuIxNAlIaUUpRoA2gJQwiUzSoeE/bhP5SGlFKUaANoCUMIlM0qHhP24T+UhpRSlGgDaAlDCJTNKh4T9uE/lIaUUpRoA2gJQwiUzSoeE/bhP5SGlFKUaANoCUMIlM0qHhP24T+UhpRSlGgDaAlDCJTNKh4T9uE/lIaUUpRlLg==

$$$$
7
     RDKit          3D

 36 38  0  0  0  0  0  0  0  0999 V2000
  -15.1391  -19.1877  -26.0186 C   0  0  0  0  0  0  0  0  0  0  0  0
  -15.5010  -20.0128  -24.9471 N   0  0  0  0  0  0  0  0  0  0  0  0
  -14.5525  -19.7739  -27.1523 C   0  0  0  0  0  0  0  0  0  0  0  0
  -15.3503  -17.7235  -25.9544 C   0  0  0  0  0  0  0  0  0  0  0  0
  -15.2829  -21.3817  -25.0113 C   0  0  0  0  0  0  0  0  0  0  0  0
  -14.3643  -21.1508  -27.2261 C   0  0  0  0  0  0  0  0  0  0  0  0
  -14.7323  -21.9756  -26.1583 C   0  0  0  0  0  0  0  0  0  0  0  0
  -16.1184  -17.1836  -24.9340 N   0  0  0  0  0  0  0  0  0  0  0  0
  -16.3992  -15.8795  -24.6695 C   0  0  0  0  0  0  0  0  0  0  0  0
  -14.8462  -16.9083  -26.8217 N   0  0  0  0  0  0  0  0  0  0  0  0
  -15.0124  -15.5202  -26.7198 C   0  0  0  0  0  0  0  0  0  0  0  0
  -15.7518  -14.9489  -25.6748 C   0  0  0  0  0  0  0  0  0  0  0  0
  -15.8744  -13.5587  -25.5758 C   0  0  0  0  0  0  0  0  0  0  0  0
  -15.2543  -12.7508  -26.5345 C   0  0  0  0  0  0  0  0  0  0  0  0
  -14.5303  -13.3235  -27.5816 C   0  0  0  0  0  0  0  0  0  0  0  0
  -14.4104  -14.7092  -27.6795 C   0  0  0  0  0  0  0  0  0  0  0  0
  -17.1164  -15.5510  -23.7222 O   0  0  0  0  0  0  0  0  0  0  0  0
  -14.4845  -23.5033  -26.2094 C   0  0  0  0  0  0  0  0  0  0  0  0
  -14.2410  -23.9010  -27.5752 O   0  0  0  0  0  0  0  0  0  0  0  0
  -15.3500  -11.4050  -26.4634 F   0  0  0  0  0  0  0  0  0  0  0  0
  -15.6962  -24.2267  -25.5810 C   0  0  0  0  0  0  0  0  0  0  0  0
  -13.1775  -23.7773  -25.4569 C   0  0  0  0  0  0  0  0  0  0  0  0
  -14.2540  -19.1694  -27.9974 H   0  0  0  0  0  0  0  0  0  0  0  0
  -15.5470  -21.9658  -24.1433 H   0  0  0  0  0  0  0  0  0  0  0  0
  -13.9130  -21.5646  -28.1156 H   0  0  0  0  0  0  0  0  0  0  0  0
  -16.6018  -17.8247  -24.3203 H   0  0  0  0  0  0  0  0  0  0  0  0
  -16.4327  -13.1137  -24.7651 H   0  0  0  0  0  0  0  0  0  0  0  0
  -14.0553  -12.6884  -28.3147 H   0  0  0  0  0  0  0  0  0  0  0  0
  -13.8444  -15.1517  -28.4863 H   0  0  0  0  0  0  0  0  0  0  0  0
  -15.7515  -24.0311  -24.5112 H   0  0  0  0  0  0  0  0  0  0  0  0
  -15.7512  -25.3036  -25.6753 H   0  0  0  0  0  0  0  0  0  0  0  0
  -16.5797  -23.8430  -26.0634 H   0  0  0  0  0  0  0  0  0  0  0  0
  -13.2909  -23.6779  -24.3763 H   0  0  0  0  0  0  0  0  0  0  0  0
  -12.4611  -23.0266  -25.7707 H   0  0  0  0  0  0  0  0  0  0  0  0
  -12.7391  -24.7495  -25.6787 H   0  0  0  0  0  0  0  0  0  0  0  0
  -14.0869  -24.8479  -27.6106 H   0  0  0  0  0  0  0  0  0  0  0  0
  1  2  2  0
  1  3  1  0
  1  4  1  0
  2  5  1  0
  3  6  2  0
  3 23  1  0
  4  8  1  0
  4 10  2  0
  5  7  2  0
  5 24  1  0
  6  7  1  0
  6 25  1  0
  7 18  1  0
  8  9  1  0
  8 26  1  0
  9 12  1  0
  9 17  2  0
 10 11  1  0
 11 12  2  0
 11 16  1  0
 12 13  1  0
 13 14  2  0
 13 27  1  0
 14 15  1  0
 14 20  1  0
 15 16  2  0
 15 28  1  0
 16 29  1  0
 18 19  1  0
 18 21  1  0
 18 22  1  0
 19 36  1  0
 21 30  1  0
 21 31  1  0
 21 32  1  0
 22 33  1  0
 22 34  1  0
 22 35  1  0
M  END
>  <Name>  (13) 
7

>  <IC50[nM]>  (13) 
700

>  <atom.dprop.PartialCharge>  (13) 
0.31899178 -0.6292941 -0.18955836 0.44611344 0.42885563 -0.08717415 -0.168111 -0.49009302 0.70684034 -0.59511566 0.18285188 -0.15888087 -0.10121055 0.10913706 -0.12909581 -0.1036488 -0.6095514 0.20411977 -0.5934275 -0.13982907 -0.11869651 -0.11869651 0.1565048 0.031386793 0.15013885 0.33781546 0.17512631 0.15253419 0.15675 0.04528073 0.04528073 0.04528073 0.04528073 0.04528073 0.04528073 0.4035325

>  <experimental dG reference units>  (13) 
nM

>  <experimental dG reference field>  (13) 
IC50[nM]

>  <kJ/mol experimental dG>  (13) 
-35.350438576016394

>  <kcal/mol experimental dG>  (13) 
-8.448957594650189

>  <AmberAM1BCCCache>  (13) 
gASVBwMAAAAAAABdlCiMFm51bXB5Ll9jb3JlLm11bHRpYXJyYXmUjAZzY2FsYXKUk5SMBW51bXB5lIwFZHR5cGWUk5SMAmY4lImIh5RSlChLA4wBPJROTk5K/////0r/////SwB0lGJDCDdaNlPDdRBAlIaUUpRoA2gJQwiPAJeyovgewJSGlFKUaANoCUMIvsLBBXR2AcCUhpRSlGgDaAlDCNEEyEwi4xRAlIaUUpRoA2gJQwjE5X6bBhATQJSGlFKUaANoCUMI23G68GNU8b+UhpRSlGgDaAlDCMj2tmGieAPAlIaUUpRoA2gJQwjVcM03umgWwJSGlFKUaANoCUMI1E0Q8vCfIECUhpRSlGgDaAlDCJQS7NlAOx3AlIaUUpRoA2gJQwiCIKuy+vf/P5SGlFKUaANoCUMIb6+Sx8o1/7+UhpRSlGgDaAlDCHxVouMRdvK/lIaUUpRoA2gJQwg6VvIWpZ3zP5SGlFKUaANoCUMIcbmdm06v+L+UhpRSlGgDaAlDCMFQHoxZpvK/lIaUUpRoA2gJQwj7s1Jql+scwJSGlFKUaANoCUMIo+O5RfLIAkCUhpRSlGgDaAlDCKZ/Ny++8RvAlIaUUpRoA2gJQwhmDU5GmWv5v5SGlFKUaANoCUMI4M8Hore087+UhpRSlGgDaAlDCODPB6K3tPO/lIaUUpRoA2gJQwh1xbSEG4T/P5SGlFKUaANoCUMIkplrRlnK1j+UhpRSlGgDaAlDCI7mUOklMv4/lIaUUpRoA2gJQwjm1MHwE6wQQJSGlFKUaANoCUMI0E9KZCyDAECUhpRSlGgDaAlDCO0CafZ3EP0/lIaUUpRoA2gJQwgD8FiYltH9P5SGlFKUaANoCUMIjPRJBScK4z+UhpRSlGgDaAlDCIz0SQUnCuM/lIaUUpRoA2gJQwiM9EkFJwrjP5SGlFKUaANoCUMIjPRJBScK4z+UhpRSlGgDaAlDCIz0SQUnCuM/lIaUUpRoA2gJQwiM9EkFJwrjP5SGlFKUaANoCUMIYhrAtYoBE0CUhpRSlGUu

$$$$
5a
     RDKit          3D

 37 39  0  0  0  0  0  0  0  0999 V2000
  -14.4887  -14.6549  -27.5068 C   0  0  0  0  0  0  0  0  0  0  0  0
  -15.0784  -15.5105  -26.5765 C   0  0  0  0  0  0  0  0  0  0  0  0
  -14.5574  -13.2734  -27.3136 C   0  0  0  0  0  0  0  0  0  0  0  0
  -15.7939  -14.9851  -25.4970 C   0  0  0  0  0  0  0  0  0  0  0  0
  -14.9153  -16.8955  -26.7252 N   0  0  0  0  0  0  0  0  0  0  0  0
  -15.2379  -12.7551  -26.2102 C   0  0  0  0  0  0  0  0  0  0  0  0
  -15.8736  -13.6081  -25.3035 C   0  0  0  0  0  0  0  0  0  0  0  0
  -16.4670  -15.9501  -24.5521 C   0  0  0  0  0  0  0  0  0  0  0  0
  -16.1428  -17.2389  -24.8228 N   0  0  0  0  0  0  0  0  0  0  0  0
  -17.2507  -15.6565  -23.6551 O   0  0  0  0  0  0  0  0  0  0  0  0
  -15.4124  -17.7404  -25.8797 C   0  0  0  0  0  0  0  0  0  0  0  0
  -15.2750  -19.2019  -26.0235 C   0  0  0  0  0  0  0  0  0  0  0  0
  -15.8060  -20.0944  -25.0806 C   0  0  0  0  0  0  0  0  0  0  0  0
  -15.6365  -21.4652  -25.2376 C   0  0  0  0  0  0  0  0  0  0  0  0
  -14.9291  -21.9656  -26.3345 C   0  0  0  0  0  0  0  0  0  0  0  0
  -14.4216  -21.0786  -27.2845 C   0  0  0  0  0  0  0  0  0  0  0  0
  -14.5948  -19.7141  -27.1334 C   0  0  0  0  0  0  0  0  0  0  0  0
  -14.5885  -23.4545  -26.4120 C   0  0  0  0  0  0  0  0  0  0  0  0
  -14.2373  -23.8906  -27.6995 O   0  0  0  0  0  0  0  0  0  0  0  0
  -15.7670  -24.3817  -26.0807 C   0  0  0  0  0  0  0  0  0  0  0  0
  -13.3520  -23.6762  -25.5380 C   0  0  0  0  0  0  0  0  0  0  0  0
  -13.9461  -15.0592  -28.3490 H   0  0  0  0  0  0  0  0  0  0  0  0
  -14.0765  -12.6015  -28.0118 H   0  0  0  0  0  0  0  0  0  0  0  0
  -15.2675  -11.6846  -26.0655 H   0  0  0  0  0  0  0  0  0  0  0  0
  -16.4083  -13.2023  -24.4560 H   0  0  0  0  0  0  0  0  0  0  0  0
  -16.6142  -17.9038  -24.2244 H   0  0  0  0  0  0  0  0  0  0  0  0
  -16.3283  -19.7466  -24.2019 H   0  0  0  0  0  0  0  0  0  0  0  0
  -16.0140  -22.1325  -24.4762 H   0  0  0  0  0  0  0  0  0  0  0  0
  -13.8515  -21.4355  -28.1296 H   0  0  0  0  0  0  0  0  0  0  0  0
  -14.1785  -19.0600  -27.8872 H   0  0  0  0  0  0  0  0  0  0  0  0
  -14.0218  -24.8268  -27.6517 H   0  0  0  0  0  0  0  0  0  0  0  0
  -16.6776  -24.0445  -26.5749 H   0  0  0  0  0  0  0  0  0  0  0  0
  -15.9457  -24.4280  -25.0079 H   0  0  0  0  0  0  0  0  0  0  0  0
  -15.5953  -25.4165  -26.3853 H   0  0  0  0  0  0  0  0  0  0  0  0
  -12.5514  -22.9776  -25.7877 H   0  0  0  0  0  0  0  0  0  0  0  0
  -12.9573  -24.6793  -25.6884 H   0  0  0  0  0  0  0  0  0  0  0  0
  -13.5749  -23.5582  -24.4761 H   0  0  0  0  0  0  0  0  0  0  0  0
  1  2  2  0
  1  3  1  0
  1 22  1  0
  2  4  1  0
  2  5  1  0
  3  6  2  0
  3 23  1  0
  4  7  2  0
  4  8  1  0
  5 11  2  0
  6  7  1  0
  6 24  1  0
  7 25  1  0
  8  9  1  0
  8 10  2  0
  9 11  1  0
  9 26  1  0
 11 12  1  0
 12 13  2  0
 12 17  1  0
 13 14  1  0
 13 27  1  0
 14 15  2  0
 14 28  1  0
 15 16  1  0
 15 18  1  0
 16 17  2  0
 16 29  1  0
 17 30  1  0
 18 19  1  0
 18 20  1  0
 18 21  1  0
 19 31  1  0
 20 32  1  0
 20 33  1  0
 20 34  1  0
 21 35  1  0
 21 36  1  0
 21 37  1  0
M  END
>  <Name>  (14) 
5a

>  <IC50[nM]>  (14) 
13

>  <atom.dprop.PartialCharge>  (14) 
-0.12502445 0.19518535 -0.09170945 -0.18882117 -0.6174593 -0.16082396 -0.055123847 0.70819676 -0.50288075 -0.62235755 0.56487566 -0.16635671 -0.09958249 -0.10798624 -0.053691443 -0.10798624 -0.09958249 0.19708054 -0.5921971 -0.11602831 -0.11602831 0.15208377 0.13549358 0.13942105 0.1563955 0.34255227 0.14292549 0.14051512 0.14051512 0.14292549 0.4007669 0.04411789 0.04411789 0.04411789 0.04411789 0.04411789 0.04411789

>  <experimental dG reference units>  (14) 
nM

>  <experimental dG reference field>  (14) 
IC50[nM]

>  <kJ/mol experimental dG>  (14) 
-45.293257787636406

>  <kcal/mol experimental dG>  (14) 
-10.825348419607172

>  <AmberAM1BCCCache>  (14) 
gASVGgMAAAAAAABdlCiMFm51bXB5Ll9jb3JlLm11bHRpYXJyYXmUjAZzY2FsYXKUk5SMBW51bXB5lIwFZHR5cGWUk5SMAmY4lImIh5RSlChLA4wBPJROTk5K/////0r/////SwB0lGJDCGO6kfNtMve/lIaUUpRoA2gJQwhThlP+/BoBQJSGlFKUaANoCUMIyT4Chpfq8b+UhpRSlGgDaAlDCIkMg5fv4AHAlIaUUpRoA2gJQwhFD0ZuPgAdwJSGlFKUaANoCUMIiSwZstPa/L+UhpRSlGgDaAlDCAfSJakHQea/lIaUUpRoA2gJQwiqUMQ9YLEgQJSGlFKUaANoCUMIVlLw1FNDF8CUhpRSlGgDaAlDCMOdnKCzcR3AlIaUUpRoA2gJQwhU/Ox2GqwZQJSGlFKUaANoCUMImKFlwShF/L+UhpRSlGgDaAlDCCdBxLFz0vG/lIaUUpRoA2gJQwh6p4GVjPP3v5SGlFKUaANoCUMI0CFVIa0H8b+UhpRSlGgDaAlDCHqngZWM8/e/lIaUUpRoA2gJQwgnQcSxc9Lxv5SGlFKUaANoCUMIQgRc/mw1AkCUhpRSlGgDaAlDCEB1S0An/xvAlIaUUpRoA2gJQwgWsiHBqHHzv5SGlFKUaANoCUMIFrIhwahx87+UhpRSlGgDaAlDCIksGbLT2vw/lIaUUpRoA2gJQwgyeFkqWdb5P5SGlFKUaANoCUMIAmrNIzBn+j+UhpRSlGgDaAlDCOQUhfw5zP0/lIaUUpRoA2gJQwir7hr8wQEQQJSGlFKUaANoCUMI50gxvyW5+z+UhpRSlGgDaAlDCKJNtRbeiPs/lIaUUpRoA2gJQwiiTbUW3oj7P5SGlFKUaANoCUMI50gxvyW5+z+UhpRSlGgDaAlDCJojy44zABNAlIaUUpRoA2gJQwjYmfizdl7iP5SGlFKUaANoCUMI2Jn4s3Ze4j+UhpRSlGgDaAlDCNiZ+LN2XuI/lIaUUpRoA2gJQwjYmfizdl7iP5SGlFKUaANoCUMI2Jn4s3Ze4j+UhpRSlGgDaAlDCNiZ+LN2XuI/lIaUUpRlLg==

$$$$
3b
     RDKit          3D

 39 41  0  0  0  0  0  0  0  0999 V2000
  -14.5843  -14.7116  -27.5536 C   0  0  0  0  0  0  0  0  0  0  0  0
  -15.1563  -15.5168  -26.5725 C   0  0  0  0  0  0  0  0  0  0  0  0
  -14.6839  -13.3308  -27.4341 C   0  0  0  0  0  0  0  0  0  0  0  0
  -15.8704  -14.9642  -25.5050 C   0  0  0  0  0  0  0  0  0  0  0  0
  -14.9849  -16.8888  -26.6806 N   0  0  0  0  0  0  0  0  0  0  0  0
  -15.3785  -12.7815  -26.3579 C   0  0  0  0  0  0  0  0  0  0  0  0
  -15.9898  -13.5830  -25.3915 C   0  0  0  0  0  0  0  0  0  0  0  0
  -16.4951  -15.9110  -24.5008 C   0  0  0  0  0  0  0  0  0  0  0  0
  -16.1292  -17.2016  -24.7265 N   0  0  0  0  0  0  0  0  0  0  0  0
  -17.2749  -15.6059  -23.5994 O   0  0  0  0  0  0  0  0  0  0  0  0
  -15.4369  -17.7151  -25.8030 C   0  0  0  0  0  0  0  0  0  0  0  0
  -15.2562  -19.1608  -25.9636 C   0  0  0  0  0  0  0  0  0  0  0  0
  -14.5830  -19.6077  -27.1049 C   0  0  0  0  0  0  0  0  0  0  0  0
  -14.3265  -20.9447  -27.2876 C   0  0  0  0  0  0  0  0  0  0  0  0
  -14.7480  -21.8824  -26.3421 C   0  0  0  0  0  0  0  0  0  0  0  0
  -15.4530  -21.4469  -25.2145 C   0  0  0  0  0  0  0  0  0  0  0  0
  -15.7105  -20.0928  -25.0243 C   0  0  0  0  0  0  0  0  0  0  0  0
  -15.4673  -11.4547  -26.2714 F   0  0  0  0  0  0  0  0  0  0  0  0
  -14.3949  -23.3652  -26.5136 C   0  0  0  0  0  0  0  0  0  0  0  0
  -15.5854  -24.2010  -26.0389 C   0  0  0  0  0  0  0  0  0  0  0  0
  -13.1695  -23.7636  -25.6881 C   0  0  0  0  0  0  0  0  0  0  0  0
  -14.0156  -23.6918  -27.9583 C   0  0  0  0  0  0  0  0  0  0  0  0
  -14.0466  -15.1535  -28.3807 H   0  0  0  0  0  0  0  0  0  0  0  0
  -14.2301  -12.6806  -28.1699 H   0  0  0  0  0  0  0  0  0  0  0  0
  -16.5321  -13.1395  -24.5694 H   0  0  0  0  0  0  0  0  0  0  0  0
  -16.5900  -17.8635  -24.1166 H   0  0  0  0  0  0  0  0  0  0  0  0
  -14.2270  -18.9240  -27.8639 H   0  0  0  0  0  0  0  0  0  0  0  0
  -13.7744  -21.2114  -28.1733 H   0  0  0  0  0  0  0  0  0  0  0  0
  -15.7825  -22.1540  -24.4698 H   0  0  0  0  0  0  0  0  0  0  0  0
  -16.2395  -19.7878  -24.1323 H   0  0  0  0  0  0  0  0  0  0  0  0
  -16.4452  -24.1248  -26.7063 H   0  0  0  0  0  0  0  0  0  0  0  0
  -15.9076  -23.8895  -25.0475 H   0  0  0  0  0  0  0  0  0  0  0  0
  -15.2786  -25.2372  -25.9762 H   0  0  0  0  0  0  0  0  0  0  0  0
  -12.3282  -23.1165  -25.9090 H   0  0  0  0  0  0  0  0  0  0  0  0
  -12.7992  -24.7579  -25.8883 H   0  0  0  0  0  0  0  0  0  0  0  0
  -13.3872  -23.7048  -24.6291 H   0  0  0  0  0  0  0  0  0  0  0  0
  -13.2997  -22.9543  -28.2921 H   0  0  0  0  0  0  0  0  0  0  0  0
  -14.8831  -23.6893  -28.6146 H   0  0  0  0  0  0  0  0  0  0  0  0
  -13.5115  -24.6565  -28.0471 H   0  0  0  0  0  0  0  0  0  0  0  0
  1  2  2  0
  1  3  1  0
  1 23  1  0
  2  4  1  0
  2  5  1  0
  3  6  2  0
  3 24  1  0
  4  7  2  0
  4  8  1  0
  5 11  2  0
  6  7  1  0
  6 18  1  0
  7 25  1  0
  8  9  1  0
  8 10  2  0
  9 11  1  0
  9 26  1  0
 11 12  1  0
 12 13  2  0
 12 17  1  0
 13 14  1  0
 13 27  1  0
 14 15  2  0
 14 28  1  0
 15 16  1  0
 15 19  1  0
 16 17  2  0
 16 29  1  0
 17 30  1  0
 19 20  1  0
 19 21  1  0
 19 22  1  0
 20 31  1  0
 20 32  1  0
 20 33  1  0
 21 34  1  0
 21 35  1  0
 21 36  1  0
 22 37  1  0
 22 38  1  0
 22 39  1  0
M  END
>  <Name>  (15) 
3b

>  <IC50[nM]>  (15) 
3.6000000000000001

>  <atom.dprop.PartialCharge>  (15) 
-0.102930605 0.18435003 -0.13081595 -0.16075762 -0.6165663 0.10948756 -0.10268901 0.7034079 -0.50012934 -0.6120302 0.56622607 -0.1727623 -0.09422953 -0.12543091 -0.043906223 -0.12543091 -0.09422953 -0.13947852 -0.020742599 -0.08067016 -0.08067016 -0.08067016 0.15651514 0.15288475 0.17547683 0.34290913 0.14157873 0.13590045 0.13590045 0.14157873 0.03754712 0.03754712 0.03754712 0.03754712 0.03754712 0.03754712 0.03754712 0.03754712 0.03754712

>  <experimental dG reference units>  (15) 
nM

>  <experimental dG reference field>  (15) 
IC50[nM]

>  <kJ/mol experimental dG>  (15) 
-48.49604619888707

>  <kcal/mol experimental dG>  (15) 
-11.590833221531327

>  <AmberAM1BCCCache>  (15) 
gASVQAMAAAAAAABdlCiMFm51bXB5Ll9jb3JlLm11bHRpYXJyYXmUjAZzY2FsYXKUk5SMBW51bXB5lIwFZHR5cGWUk5SMAmY4lImIh5RSlChLA4wBPJROTk5K/////0r/////SwB0lGJDCEtbd2y3q/K/lIaUUpRoA2gJQwieCGc9chEAQJSGlFKUaANoCUMItsh602SE+L+UhpRSlGgDaAlDCMqrX6H/y/+/lIaUUpRoA2gJQwhOXEjVLPQcwJSGlFKUaANoCUMIJVWh5bc38z+UhpRSlGgDaAlDCAZg+8Nve/K/lIaUUpRoA2gJQwhUKyQgV6sgQJSGlFKUaANoCUMIjqDTUTArF8CUhpRSlGgDaAlDCLXwA3VIKR3AlIaUUpRoA2gJQwiQqma4c+gZQJSGlFKUaANoCUMIMKvKSWfH/b+UhpRSlGgDaAlDCAd6UaXlcfG/lIaUUpRoA2gJQwgSseYdy3X5v5SGlFKUaANoCUMIjAmdVJ+l3b+UhpRSlGgDaAlDCBKx5h3Ldfm/lIaUUpRoA2gJQwgHelGl5XHxv5SGlFKUaANoCUMINhMjzz6h+b+UhpRSlGgDaAlDCN3oUPDBLca/lIaUUpRoA2gJQwgpLed9L23wv5SGlFKUaANoCUMIKS3nfS9t8L+UhpRSlGgDaAlDCCkt530vbfC/lIaUUpRoA2gJQwi+4HtggPz9P5SGlFKUaANoCUMIY/gPFhoL/T+UhpRSlGgDaAlDCOjM359ZaABAlIaUUpRoA2gJQwhzoDd/5RkQQJSGlFKUaANoCUMI8SK0KZVY+z+UhpRSlGgDaAlDCH0zAlyar/o/lIaUUpRoA2gJQwh9MwJcmq/6P5SGlFKUaANoCUMI8SK0KZVY+z+UhpRSlGgDaAlDCOezseMVnd0/lIaUUpRoA2gJQwjns7HjFZ3dP5SGlFKUaANoCUMI57Ox4xWd3T+UhpRSlGgDaAlDCOezseMVnd0/lIaUUpRoA2gJQwjns7HjFZ3dP5SGlFKUaANoCUMI57Ox4xWd3T+UhpRSlGgDaAlDCOezseMVnd0/lIaUUpRoA2gJQwjns7HjFZ3dP5SGlFKUaANoCUMI57Ox4xWd3T+UhpRSlGUu

$$$$
8d
     RDKit          3D

 46 49  0  0  0  0  0  0  0  0999 V2000
  -14.5244  -14.7755  -27.5404 C   0  0  0  0  0  0  0  0  0  0  0  0
  -15.1162  -15.5856  -26.5557 C   0  0  0  0  0  0  0  0  0  0  0  0
  -14.6126  -13.3870  -27.4243 C   0  0  0  0  0  0  0  0  0  0  0  0
  -15.8507  -14.9969  -25.5184 C   0  0  0  0  0  0  0  0  0  0  0  0
  -14.9512  -16.9828  -26.6050 N   0  0  0  0  0  0  0  0  0  0  0  0
  -15.3071  -12.8055  -26.3678 C   0  0  0  0  0  0  0  0  0  0  0  0
  -15.9466  -13.6049  -25.4160 C   0  0  0  0  0  0  0  0  0  0  0  0
  -16.5334  -15.9075  -24.5193 C   0  0  0  0  0  0  0  0  0  0  0  0
  -16.1785  -17.2137  -24.6942 N   0  0  0  0  0  0  0  0  0  0  0  0
  -17.3476  -15.5543  -23.6635 O   0  0  0  0  0  0  0  0  0  0  0  0
  -15.4432  -17.7838  -25.7187 C   0  0  0  0  0  0  0  0  0  0  0  0
  -15.2778  -19.2588  -25.8075 C   0  0  0  0  0  0  0  0  0  0  0  0
  -14.7706  -19.8268  -26.9878 C   0  0  0  0  0  0  0  0  0  0  0  0
  -14.6315  -21.2044  -27.1217 C   0  0  0  0  0  0  0  0  0  0  0  0
  -14.9891  -22.0562  -26.0731 C   0  0  0  0  0  0  0  0  0  0  0  0
  -15.4751  -21.4979  -24.8861 C   0  0  0  0  0  0  0  0  0  0  0  0
  -15.6240  -20.1168  -24.7536 C   0  0  0  0  0  0  0  0  0  0  0  0
  -13.7517  -15.3550  -28.7136 C   0  0  0  0  0  0  0  0  0  0  0  0
  -15.3512  -11.4588  -26.2838 F   0  0  0  0  0  0  0  0  0  0  0  0
  -14.9424  -23.5841  -26.2418 C   0  0  0  0  0  0  0  0  0  0  0  0
  -13.6275  -24.1410  -26.8461 C   0  0  0  0  0  0  0  0  0  0  0  0
  -13.6510  -25.6466  -27.2708 C   0  0  0  0  0  0  0  0  0  0  0  0
  -14.9478  -25.9976  -27.9976 N   0  0  0  0  0  0  0  0  0  0  0  0
  -16.1519  -25.5972  -27.1498 C   0  0  0  0  0  0  0  0  0  0  0  0
  -16.1496  -24.0686  -27.0565 C   0  0  0  0  0  0  0  0  0  0  0  0
  -14.1335  -12.7478  -28.1517 H   0  0  0  0  0  0  0  0  0  0  0  0
  -16.4955  -13.1480  -24.6047 H   0  0  0  0  0  0  0  0  0  0  0  0
  -16.6654  -17.8407  -24.0677 H   0  0  0  0  0  0  0  0  0  0  0  0
  -14.4992  -19.2033  -27.8299 H   0  0  0  0  0  0  0  0  0  0  0  0
  -14.2711  -21.5952  -28.0614 H   0  0  0  0  0  0  0  0  0  0  0  0
  -15.7622  -22.1352  -24.0637 H   0  0  0  0  0  0  0  0  0  0  0  0
  -16.0174  -19.7330  -23.8227 H   0  0  0  0  0  0  0  0  0  0  0  0
  -14.1988  -16.2900  -29.0479 H   0  0  0  0  0  0  0  0  0  0  0  0
  -12.7236  -15.5508  -28.4141 H   0  0  0  0  0  0  0  0  0  0  0  0
  -13.7339  -14.6772  -29.5672 H   0  0  0  0  0  0  0  0  0  0  0  0
  -15.0303  -23.9956  -25.2342 H   0  0  0  0  0  0  0  0  0  0  0  0
  -13.3518  -23.5408  -27.7063 H   0  0  0  0  0  0  0  0  0  0  0  0
  -12.8282  -23.9831  -26.1195 H   0  0  0  0  0  0  0  0  0  0  0  0
  -13.6092  -26.3608  -26.4633 H   0  0  0  0  0  0  0  0  0  0  0  0
  -12.8978  -25.9512  -27.9876 H   0  0  0  0  0  0  0  0  0  0  0  0
  -14.9695  -26.9907  -28.1948 H   0  0  0  0  0  0  0  0  0  0  0  0
  -16.0851  -26.0882  -26.1788 H   0  0  0  0  0  0  0  0  0  0  0  0
  -17.0202  -25.9948  -27.6634 H   0  0  0  0  0  0  0  0  0  0  0  0
  -16.1265  -23.6473  -28.0623 H   0  0  0  0  0  0  0  0  0  0  0  0
  -17.0653  -23.7009  -26.6092 H   0  0  0  0  0  0  0  0  0  0  0  0
  -14.9828  -25.4999  -28.8775 H   0  0  0  0  0  0  0  0  0  0  0  0
  1  2  2  0
  1  3  1  0
  1 18  1  0
  2  4  1  0
  2  5  1  0
  3  6  2  0
  3 26  1  0
  4  7  2  0
  4  8  1  0
  5 11  2  0
  6  7  1  0
  6 19  1  0
  7 27  1  0
  8  9  1  0
  8 10  2  0
  9 11  1  0
  9 28  1  0
 11 12  1  0
 12 13  2  0
 12 17  1  0
 13 14  1  0
 13 29  1  0
 14 15  2  0
 14 30  1  0
 15 16  1  0
 15 20  1  0
 16 17  2  0
 16 31  1  0
 17 32  1  0
 18 33  1  0
 18 34  1  0
 18 35  1  0
 20 21  1  0
 20 25  1  0
 20 36  1  0
 21 22  1  0
 21 37  1  0
 21 38  1  0
 22 23  1  0
 22 39  1  0
 22 40  1  0
 23 24  1  0
 23 41  1  0
 23 46  1  0
 24 25  1  0
 24 42  1  0
 24 43  1  0
 25 44  1  0
 25 45  1  0
M  CHG  1  23   1
M  END
>  <Name>  (16) 
8d

>  <IC50[nM]>  (16) 
0.69999999999999996

>  <atom.dprop.PartialCharge>  (16) 
-0.021946836 0.18093213 -0.1514782 -0.15464674 -0.61286086 0.12534553 -0.10365571 0.70729387 -0.4943246 -0.6039413 0.56339926 -0.1577194 -0.07539296 -0.12537403 -0.0943955 -0.12537403 -0.07539296 -0.049609255 -0.1384383 -0.024677616 -0.103933096 0.10526404 -0.76593685 0.10526404 -0.103933096 0.16259953 0.18039939 0.34815174 0.14764342 0.13088666 0.13088666 0.14764342 0.061194476 0.061194476 0.061194476 0.08253725 0.08792783 0.08792783 0.1057715 0.1057715 0.45320165 0.1057715 0.1057715 0.08792783 0.08792783 0.45320165

>  <experimental dG reference units>  (16) 
nM

>  <experimental dG reference field>  (16) 
IC50[nM]

>  <kJ/mol experimental dG>  (16) 
-52.58082119096462

>  <kcal/mol experimental dG>  (16) 
-12.567117875469554

>  <AmberAM1BCCCache>  (16) 
gASVxQMAAAAAAABdlCiMFm51bXB5Ll9jb3JlLm11bHRpYXJyYXmUjAZzY2FsYXKUk5SMBW51bXB5lIwFZHR5cGWUk5SMAmY4lImIh5RSlChLA4wBPJROTk5K/////0r/////SwB0lGJDCCrEf13MIta/lIaUUpRoA2gJQwjn+RUppPr7P5SGlFKUaANoCUMI+ybvRXLY+b+UhpRSlGgDaAlDCEWAuJ8Nafy/lIaUUpRoA2gJQwjhjTsTpj8cwJSGlFKUaANoCUMIkV+sgp/s9z+UhpRSlGgDaAlDCBuw4y9UYPS/lIaUUpRoA2gJQwjRmlEaHbEgQJSGlFKUaANoCUMIq7sT8P1bF8CUhpRSlGgDaAlDCNMlmvSLUBzAlIaUUpRoA2gJQwiNsMJ+sGUYQJSGlFKUaANoCUMIm/qLKy599b+UhpRSlGgDaAlDCMQVeolPUvC/lIaUUpRoA2gJQwgVYuGL8nz3v5SGlFKUaANoCUMIUKHC0ZLs8r+UhpRSlGgDaAlDCBVi4YvyfPe/lIaUUpRoA2gJQwjEFXqJT1Lwv5SGlFKUaANoCUMINiCbKuDM4r+UhpRSlGgDaAlDCJfG32hCkPe/lIaUUpRoA2gJQwihyz3O01XNv5SGlFKUaANoCUMItBsokDgr9L+UhpRSlGgDaAlDCAIlvWEyIvQ/lIaUUpRoA2gJQwjdcqOI9fwhwJSGlFKUaANoCUMIAiW9YTIi9D+UhpRSlGgDaAlDCLQbKJA4K/S/lIaUUpRoA2gJQwjsV2Pa91r+P5SGlFKUaANoCUMIrXwJgkgQAUCUhpRSlGgDaAlDCKsK78Ev0g9AlIaUUpRoA2gJQwgyU9+CP4v+P5SGlFKUaANoCUMImNdPFWlD+T+UhpRSlGgDaAlDCJjXTxVpQ/k/lIaUUpRoA2gJQwgyU9+CP4v+P5SGlFKUaANoCUMInFXrmThd5D+UhpRSlGgDaAlDCJxV65k4XeQ/lIaUUpRoA2gJQwicVeuZOF3kP5SGlFKUaANoCUMIN2wccpWm6j+UhpRSlGgDaAlDCCzIUMbMtfE/lIaUUpRoA2gJQwgsyFDGzLXxP5SGlFKUaANoCUMIs4qcVHAp9D+UhpRSlGgDaAlDCLOKnFRwKfQ/lIaUUpRoA2gJQwikL2P7y14VQJSGlFKUaANoCUMIs4qcVHAp9D+UhpRSlGgDaAlDCLOKnFRwKfQ/lIaUUpRoA2gJQwgsyFDGzLXxP5SGlFKUaANoCUMILMhQxsy18T+UhpRSlGgDaAlDCKQvY/vLXhVAlIaUUpRlLg==

$$$$
5d
     RDKit          3D

 37 39  0  0  0  0  0  0  0  0999 V2000
  -14.3086  -14.7921  -27.4784 C   0  0  0  0  0  0  0  0  0  0  0  0
  -15.0167  -15.5896  -26.5804 C   0  0  0  0  0  0  0  0  0  0  0  0
  -14.4209  -13.4086  -27.3834 C   0  0  0  0  0  0  0  0  0  0  0  0
  -15.8598  -15.0204  -25.6172 C   0  0  0  0  0  0  0  0  0  0  0  0
  -14.8572  -16.9685  -26.6643 N   0  0  0  0  0  0  0  0  0  0  0  0
  -15.2467  -12.8486  -26.4112 C   0  0  0  0  0  0  0  0  0  0  0  0
  -15.9778  -13.6371  -25.5261 C   0  0  0  0  0  0  0  0  0  0  0  0
  -15.3497  -11.5222  -26.3368 F   0  0  0  0  0  0  0  0  0  0  0  0
  -16.6344  -15.9439  -24.7010 C   0  0  0  0  0  0  0  0  0  0  0  0
  -16.3378  -17.2491  -24.9375 N   0  0  0  0  0  0  0  0  0  0  0  0
  -17.4603  -15.6053  -23.8520 O   0  0  0  0  0  0  0  0  0  0  0  0
  -15.4812  -17.7825  -25.8835 C   0  0  0  0  0  0  0  0  0  0  0  0
  -15.3281  -19.2368  -26.0128 C   0  0  0  0  0  0  0  0  0  0  0  0
  -15.7173  -20.1149  -24.9948 C   0  0  0  0  0  0  0  0  0  0  0  0
  -15.5045  -21.4792  -25.1435 C   0  0  0  0  0  0  0  0  0  0  0  0
  -14.9173  -21.9782  -26.3122 C   0  0  0  0  0  0  0  0  0  0  0  0
  -14.5597  -21.1078  -27.3352 C   0  0  0  0  0  0  0  0  0  0  0  0
  -14.7654  -19.7512  -27.1884 C   0  0  0  0  0  0  0  0  0  0  0  0
  -14.5723  -23.4575  -26.4180 C   0  0  0  0  0  0  0  0  0  0  0  0
  -14.2296  -23.8957  -27.7059 O   0  0  0  0  0  0  0  0  0  0  0  0
  -15.7738  -24.3383  -26.1013 C   0  0  0  0  0  0  0  0  0  0  0  0
  -13.3357  -23.7020  -25.5598 C   0  0  0  0  0  0  0  0  0  0  0  0
  -13.6666  -15.2372  -28.2250 H   0  0  0  0  0  0  0  0  0  0  0  0
  -13.8693  -12.7659  -28.0555 H   0  0  0  0  0  0  0  0  0  0  0  0
  -16.6179  -13.1711  -24.7897 H   0  0  0  0  0  0  0  0  0  0  0  0
  -16.8986  -17.8932  -24.3961 H   0  0  0  0  0  0  0  0  0  0  0  0
  -16.1594  -19.7615  -24.0734 H   0  0  0  0  0  0  0  0  0  0  0  0
  -15.7659  -22.1386  -24.3295 H   0  0  0  0  0  0  0  0  0  0  0  0
  -14.0863  -21.4707  -28.2353 H   0  0  0  0  0  0  0  0  0  0  0  0
  -14.4611  -19.1052  -28.0006 H   0  0  0  0  0  0  0  0  0  0  0  0
  -14.0254  -24.8372  -27.6632 H   0  0  0  0  0  0  0  0  0  0  0  0
  -16.6686  -23.9680  -26.6026 H   0  0  0  0  0  0  0  0  0  0  0  0
  -15.9590  -24.3559  -25.0291 H   0  0  0  0  0  0  0  0  0  0  0  0
  -15.6385  -25.3819  -26.3933 H   0  0  0  0  0  0  0  0  0  0  0  0
  -12.5229  -23.0398  -25.8496 H   0  0  0  0  0  0  0  0  0  0  0  0
  -12.9848  -24.7235  -25.6730 H   0  0  0  0  0  0  0  0  0  0  0  0
  -13.5341  -23.5351  -24.4994 H   0  0  0  0  0  0  0  0  0  0  0  0
  1  2  2  0
  1  3  1  0
  1 23  1  0
  2  4  1  0
  2  5  1  0
  3  6  2  0
  3 24  1  0
  4  7  2  0
  4  9  1  0
  5 12  2  0
  6  7  1  0
  6  8  1  0
  7 25  1  0
  9 10  1  0
  9 11  2  0
 10 12  1  0
 10 26  1  0
 12 13  1  0
 13 14  2  0
 13 18  1  0
 14 15  1  0
 14 27  1  0
 15 16  2  0
 15 28  1  0
 16 17  1  0
 16 19  1  0
 17 18  2  0
 17 29  1  0
 18 30  1  0
 19 20  1  0
 19 21  1  0
 19 22  1  0
 20 31  1  0
 21 32  1  0
 21 33  1  0
 21 34  1  0
 22 35  1  0
 22 36  1  0
 22 37  1  0
M  END
>  <Name>  (17) 
5d

>  <IC50[nM]>  (17) 
10.5

>  <atom.dprop.PartialCharge>  (17) 
-0.10289873 0.1843819 -0.1307841 -0.16072574 -0.6165344 0.10951944 -0.10265713 -0.13944665 0.7034398 -0.50009745 -0.6119983 0.56702834 -0.16622037 -0.099446155 -0.107849896 -0.05355511 -0.107849896 -0.099446155 0.19721687 -0.59206074 -0.11589197 -0.11589197 0.15654701 0.15291663 0.17550871 0.34294102 0.14306183 0.14065146 0.14065146 0.14306183 0.40090325 0.04425423 0.04425423 0.04425423 0.04425423 0.04425423 0.04425423

>  <experimental dG reference units>  (17) 
nM

>  <experimental dG reference field>  (17) 
IC50[nM]

>  <kJ/mol experimental dG>  (17) 
-45.82598706308943

>  <kcal/mol experimental dG>  (17) 
-10.952673772248907

>  <AmberAM1BCCCache>  (17) 
gASVGgMAAAAAAABdlCiMFm51bXB5Ll9jb3JlLm11bHRpYXJyYXmUjAZzY2FsYXKUk5SMBW51bXB5lIwFZHR5cGWUk5SMAmY4lImIh5RSlChLA4wBPJROTk5K/////0r/////SwB0lGJDCP0lCLwaqfK/lIaUUpRoA2gJQwhGo56VwBIAQJSGlFKUaANoCUMIZ5MLI8iB+L+UhpRSlGgDaAlDCDZ7dEgbmf+/lIaUUpRoA2gJQwhYke7UYdscwJSGlFKUaANoCUMIdIoQllQ68z+UhpRSlGgDaAlDCLcqjBPTePK/lIaUUpRoA2gJQwjn3bMeop75v5SGlFKUaANoCUMI/hEytqqrIECUhpRSlGgDaAlDCAzS1g+bNhfAlIaUUpRoA2gJQwhiI+hIoSgdwJSGlFKUaANoCUMIQXpEEPfQGUCUhpRSlGgDaAlDCIWN705k0/y/lIaUUpRoA2gJQwgVLU4/r2Dyv5SGlFKUaANoCUMIDcX1udeG9r+UhpRSlGgDaAlDCDifB2bdtOO/lIaUUpRoA2gJQwgNxfW514b2v5SGlFKUaANoCUMIFS1OP69g8r+UhpRSlGgDaAlDCNcEj4jeTgJAlIaUUpRoA2gJQwiv7Ari60YcwJSGlFKUaANoCUMIFlfvLRfU9r+UhpRSlGgDaAlDCBZX7y0X1Pa/lIaUUpRoA2gJQwgNFusQHf/9P5SGlFKUaANoCUMIsi1/xrYN/T+UhpRSlGgDaAlDCJBnF/inaQBAlIaUUpRoA2gJQwjGbVOrjBoQQJSGlFKUaANoCUMIhVOfgnmL+z+UhpRSlGgDaAlDCD4+zfi7ZPw/lIaUUpRoA2gJQwg+Ps34u2T8P5SGlFKUaANoCUMIhVOfgnmL+z+UhpRSlGgDaAlDCIehIigQJRNAlIaUUpRoA2gJQwhzZo6y9uLhP5SGlFKUaANoCUMIc2aOsvbi4T+UhpRSlGgDaAlDCHNmjrL24uE/lIaUUpRoA2gJQwhzZo6y9uLhP5SGlFKUaANoCUMIc2aOsvbi4T+UhpRSlGgDaAlDCHNmjrL24uE/lIaUUpRlLg==

$$$$
5c
     RDKit          3D

 37 39  0  0  0  0  0  0  0  0999 V2000
  -14.6402  -14.6836  -27.5547 C   0  0  0  0  0  0  0  0  0  0  0  0
  -15.1755  -15.5552  -26.6036 C   0  0  0  0  0  0  0  0  0  0  0  0
  -14.7438  -13.3055  -27.3562 C   0  0  0  0  0  0  0  0  0  0  0  0
  -15.8696  -15.0613  -25.4918 C   0  0  0  0  0  0  0  0  0  0  0  0
  -14.9688  -16.9303  -26.7569 N   0  0  0  0  0  0  0  0  0  0  0  0
  -15.3733  -12.8094  -26.2126 C   0  0  0  0  0  0  0  0  0  0  0  0
  -15.9336  -13.6874  -25.2804 C   0  0  0  0  0  0  0  0  0  0  0  0
  -16.5077  -16.0631  -24.5388 C   0  0  0  0  0  0  0  0  0  0  0  0
  -16.1797  -17.3276  -24.8519 N   0  0  0  0  0  0  0  0  0  0  0  0
  -17.2756  -15.8537  -23.5980 O   0  0  0  0  0  0  0  0  0  0  0  0
  -15.4325  -17.7880  -25.9083 C   0  0  0  0  0  0  0  0  0  0  0  0
  -15.2347  -19.2298  -26.0215 C   0  0  0  0  0  0  0  0  0  0  0  0
  -14.5685  -19.7364  -27.1395 C   0  0  0  0  0  0  0  0  0  0  0  0
  -14.3729  -21.0966  -27.2695 C   0  0  0  0  0  0  0  0  0  0  0  0
  -14.8512  -21.9648  -26.2915 C   0  0  0  0  0  0  0  0  0  0  0  0
  -15.5073  -21.4630  -25.1657 C   0  0  0  0  0  0  0  0  0  0  0  0
  -15.7070  -20.1036  -25.0334 C   0  0  0  0  0  0  0  0  0  0  0  0
  -14.5890  -23.4530  -26.4105 C   0  0  0  0  0  0  0  0  0  0  0  0
  -14.2420  -23.8777  -27.6930 O   0  0  0  0  0  0  0  0  0  0  0  0
  -15.8426  -24.2713  -26.2211 C   0  0  0  0  0  0  0  0  0  0  0  0
  -13.4461  -23.8224  -25.4773 C   0  0  0  0  0  0  0  0  0  0  0  0
  -16.6478  -13.0758  -23.8537 Cl  0  0  0  0  0  0  0  0  0  0  0  0
  -14.1211  -15.0714  -28.4191 H   0  0  0  0  0  0  0  0  0  0  0  0
  -14.3123  -12.6194  -28.0725 H   0  0  0  0  0  0  0  0  0  0  0  0
  -15.4161  -11.7422  -26.0453 H   0  0  0  0  0  0  0  0  0  0  0  0
  -16.6484  -18.0051  -24.2667 H   0  0  0  0  0  0  0  0  0  0  0  0
  -14.1921  -19.0860  -27.9170 H   0  0  0  0  0  0  0  0  0  0  0  0
  -13.8366  -21.4662  -28.1300 H   0  0  0  0  0  0  0  0  0  0  0  0
  -15.8567  -22.1134  -24.3782 H   0  0  0  0  0  0  0  0  0  0  0  0
  -16.2216  -19.7579  -24.1478 H   0  0  0  0  0  0  0  0  0  0  0  0
  -14.1117  -24.8317  -27.6615 H   0  0  0  0  0  0  0  0  0  0  0  0
  -16.6408  -23.8913  -26.8628 H   0  0  0  0  0  0  0  0  0  0  0  0
  -16.1710  -24.2634  -25.1835 H   0  0  0  0  0  0  0  0  0  0  0  0
  -15.7129  -25.3281  -26.4654 H   0  0  0  0  0  0  0  0  0  0  0  0
  -12.6022  -23.1441  -25.5977 H   0  0  0  0  0  0  0  0  0  0  0  0
  -13.0927  -24.8196  -25.7118 H   0  0  0  0  0  0  0  0  0  0  0  0
  -13.7424  -23.7925  -24.4280 H   0  0  0  0  0  0  0  0  0  0  0  0
  1  2  2  0
  1  3  1  0
  1 23  1  0
  2  4  1  0
  2  5  1  0
  3  6  2  0
  3 24  1  0
  4  7  2  0
  4  8  1  0
  5 11  2  0
  6  7  1  0
  6 25  1  0
  7 22  1  0
  8  9  1  0
  8 10  2  0
  9 11  1  0
  9 26  1  0
 11 12  1  0
 12 13  2  0
 12 17  1  0
 13 14  1  0
 13 27  1  0
 14 15  2  0
 14 28  1  0
 15 16  1  0
 15 18  1  0
 16 17  2  0
 16 29  1  0
 17 30  1  0
 18 19  1  0
 18 20  1  0
 18 21  1  0
 19 31  1  0
 20 32  1  0
 20 33  1  0
 20 34  1  0
 21 35  1  0
 21 36  1  0
 21 37  1  0
M  END
>  <Name>  (18) 
5c

>  <IC50[nM]>  (18) 
50

>  <atom.dprop.PartialCharge>  (18) 
-0.12509774 0.21086438 -0.0874944 -0.18177855 -0.6193756 -0.1691584 0.093571395 0.70863295 -0.50358087 -0.6053299 0.565111 -0.16675434 -0.09916856 -0.1075723 -0.05327751 -0.1075723 -0.09916856 0.19749443 -0.5917831 -0.115614355 -0.115614355 -0.05323366 0.15565194 0.13636985 0.15257408 0.34439555 0.14333946 0.14092909 0.14092909 0.14333946 0.40118086 0.04453183 0.04453183 0.04453183 0.04453183 0.04453183 0.04453183

>  <experimental dG reference units>  (18) 
nM

>  <experimental dG reference field>  (18) 
IC50[nM]

>  <kJ/mol experimental dG>  (18) 
-41.93318010283475

>  <kcal/mol experimental dG>  (18) 
-10.022270579071401

>  <AmberAM1BCCCache>  (18) 
gASVGgMAAAAAAABdlCiMFm51bXB5Ll9jb3JlLm11bHRpYXJyYXmUjAZzY2FsYXKUk5SMBW51bXB5lIwFZHR5cGWUk5SMAmY4lImIh5RSlChLA4wBPJROTk5K/////0r/////SwB0lGJDCB2e9wPhxfe/lIaUUpRoA2gJQwj/cMLlXDsCQJSGlFKUaANoCUMIhlYUWfZq8L+UhpRSlGgDaAlDCMUaziz7CAHAlIaUUpRoA2gJQwjsfziZmHkdwJSGlFKUaANoCUMIzQZ3E9bO/b+UhpRSlGgDaAlDCEXUfczeb+8/lIaUUpRoA2gJQwjWkfWvFbcgQJSGlFKUaANoCUMIc8zqrh5cF8CUhpRSlGgDaAlDCOEx7Vv0gBzAlIaUUpRoA2gJQwg3dUesFBgaQJSGlFKUaANoCUMIDIpPKVSo/L+UhpRSlGgDaAlDCD0n7O3CTfK/lIaUUpRoA2gJQwgeuE3lVrz2v5SGlFKUaANoCUMIRJjHGr1e47+UhpRSlGgDaAlDCB64TeVWvPa/lIaUUpRoA2gJQwg9J+ztwk3yv5SGlFKUaANoCUMI8Qghx0JMAkCUhpRSlGgDaAlDCKLqwcI5SBzAlIaUUpRoA2gJQwjhTsuwTtn2v5SGlFKUaANoCUMI4U7LsE7Z9r+UhpRSlGgDaAlDCJu3NquDKeS/lIaUUpRoA2gJQwi2Jxc9Vpn9P5SGlFKUaANoCUMIo27TXSPF+j+UhpRSlGgDaAlDCFs/q/Lvp/w/lIaUUpRoA2gJQwjTb5zKPhkQQJSGlFKUaANoCUMIXFkB1GWe+z+UhpRSlGgDaAlDCHJG8XWEX/w/lIaUUpRoA2gJQwhyRvF1hF/8P5SGlFKUaANoCUMIXFkB1GWe+z+UhpRSlGgDaAlDCJSja0fCIxNAlIaUUpRoA2gJQwh8vxw1r/jhP5SGlFKUaANoCUMIfL8cNa/44T+UhpRSlGgDaAlDCHy/HDWv+OE/lIaUUpRoA2gJQwh8vxw1r/jhP5SGlFKUaANoCUMIfL8cNa/44T+UhpRSlGgDaAlDCHy/HDWv+OE/lIaUUpRlLg==

$$$$
5p
     RDKit          3D

 47 49  0  0  0  0  0  0  0  0999 V2000
  -15.1391  -19.1877  -26.0186 C   0  0  0  0  0  0  0  0  0  0  0  0
  -15.5010  -20.0128  -24.9471 C   0  0  0  0  0  0  0  0  0  0  0  0
  -14.5525  -19.7739  -27.1523 C   0  0  0  0  0  0  0  0  0  0  0  0
  -15.3503  -17.7235  -25.9544 C   0  0  0  0  0  0  0  0  0  0  0  0
  -15.2829  -21.3817  -25.0113 C   0  0  0  0  0  0  0  0  0  0  0  0
  -14.3643  -21.1508  -27.2261 C   0  0  0  0  0  0  0  0  0  0  0  0
  -14.7323  -21.9756  -26.1583 C   0  0  0  0  0  0  0  0  0  0  0  0
  -16.1184  -17.1836  -24.9340 N   0  0  0  0  0  0  0  0  0  0  0  0
  -16.3992  -15.8795  -24.6695 C   0  0  0  0  0  0  0  0  0  0  0  0
  -14.8462  -16.9083  -26.8217 N   0  0  0  0  0  0  0  0  0  0  0  0
  -15.0124  -15.5202  -26.7198 C   0  0  0  0  0  0  0  0  0  0  0  0
  -15.7518  -14.9489  -25.6748 C   0  0  0  0  0  0  0  0  0  0  0  0
  -15.8744  -13.5587  -25.5758 C   0  0  0  0  0  0  0  0  0  0  0  0
  -15.2543  -12.7508  -26.5345 C   0  0  0  0  0  0  0  0  0  0  0  0
  -14.5303  -13.3235  -27.5816 C   0  0  0  0  0  0  0  0  0  0  0  0
  -14.4104  -14.7092  -27.6795 C   0  0  0  0  0  0  0  0  0  0  0  0
  -17.1164  -15.5510  -23.7222 O   0  0  0  0  0  0  0  0  0  0  0  0
  -14.4845  -23.5033  -26.2094 C   0  0  0  0  0  0  0  0  0  0  0  0
  -14.2410  -23.9010  -27.5752 O   0  0  0  0  0  0  0  0  0  0  0  0
  -15.3500  -11.4050  -26.4634 F   0  0  0  0  0  0  0  0  0  0  0  0
  -14.6693  -25.1645  -28.1103 C   0  0  0  0  0  0  0  0  0  0  0  0
  -13.9892  -26.4251  -27.5377 C   0  0  0  0  0  0  0  0  0  0  0  0
  -12.6044  -26.5401  -27.8382 O   0  0  0  0  0  0  0  0  0  0  0  0
  -12.3229  -27.1506  -29.0924 C   0  0  0  0  0  0  0  0  0  0  0  0
  -15.6962  -24.2267  -25.5810 C   0  0  0  0  0  0  0  0  0  0  0  0
  -13.1775  -23.7773  -25.4569 C   0  0  0  0  0  0  0  0  0  0  0  0
  -15.9389  -19.6120  -24.0438 H   0  0  0  0  0  0  0  0  0  0  0  0
  -14.2540  -19.1694  -27.9974 H   0  0  0  0  0  0  0  0  0  0  0  0
  -15.5470  -21.9658  -24.1433 H   0  0  0  0  0  0  0  0  0  0  0  0
  -13.9130  -21.5646  -28.1156 H   0  0  0  0  0  0  0  0  0  0  0  0
  -16.6018  -17.8247  -24.3203 H   0  0  0  0  0  0  0  0  0  0  0  0
  -16.4327  -13.1137  -24.7651 H   0  0  0  0  0  0  0  0  0  0  0  0
  -14.0553  -12.6884  -28.3147 H   0  0  0  0  0  0  0  0  0  0  0  0
  -13.8444  -15.1517  -28.4863 H   0  0  0  0  0  0  0  0  0  0  0  0
  -14.4895  -25.1509  -29.1832 H   0  0  0  0  0  0  0  0  0  0  0  0
  -15.7505  -25.2469  -28.0138 H   0  0  0  0  0  0  0  0  0  0  0  0
  -14.5352  -27.3238  -27.8299 H   0  0  0  0  0  0  0  0  0  0  0  0
  -14.0516  -26.3877  -26.4633 H   0  0  0  0  0  0  0  0  0  0  0  0
  -11.2445  -27.1849  -29.2440 H   0  0  0  0  0  0  0  0  0  0  0  0
  -12.7529  -26.5894  -29.9224 H   0  0  0  0  0  0  0  0  0  0  0  0
  -12.6953  -28.1753  -29.1292 H   0  0  0  0  0  0  0  0  0  0  0  0
  -15.7515  -24.0311  -24.5112 H   0  0  0  0  0  0  0  0  0  0  0  0
  -15.7512  -25.3036  -25.6753 H   0  0  0  0  0  0  0  0  0  0  0  0
  -16.5797  -23.8430  -26.0634 H   0  0  0  0  0  0  0  0  0  0  0  0
  -13.2909  -23.6779  -24.3763 H   0  0  0  0  0  0  0  0  0  0  0  0
  -12.4611  -23.0266  -25.7707 H   0  0  0  0  0  0  0  0  0  0  0  0
  -12.7391  -24.7495  -25.6787 H   0  0  0  0  0  0  0  0  0  0  0  0
  1  2  2  0
  1  3  1  0
  1  4  1  0
  2  5  1  0
  2 27  1  0
  3  6  2  0
  3 28  1  0
  4  8  1  0
  4 10  2  0
  5  7  2  0
  5 29  1  0
  6  7  1  0
  6 30  1  0
  7 18  1  0
  8  9  1  0
  8 31  1  0
  9 12  1  0
  9 17  2  0
 10 11  1  0
 11 12  2  0
 11 16  1  0
 12 13  1  0
 13 14  2  0
 13 32  1  0
 14 15  1  0
 14 20  1  0
 15 16  2  0
 15 33  1  0
 16 34  1  0
 18 19  1  0
 18 25  1  0
 18 26  1  0
 19 21  1  0
 21 22  1  0
 21 35  1  0
 21 36  1  0
 22 23  1  0
 22 37  1  0
 22 38  1  0
 23 24  1  0
 24 39  1  0
 24 40  1  0
 24 41  1  0
 25 42  1  0
 25 43  1  0
 25 44  1  0
 26 45  1  0
 26 46  1  0
 26 47  1  0
M  END
>  <Name>  (19) 
5p

>  <IC50[nM]>  (19) 
20

>  <atom.dprop.PartialCharge>  (19) 
-0.16292083 -0.10009439 -0.10009439 0.5668555 -0.11322826 -0.11322826 -0.059512228 -0.50027037 0.7032669 -0.6167073 0.18420905 -0.16089864 -0.10283 0.10934658 -0.13095695 -0.10307166 -0.61217123 0.1986662 -0.41674972 -0.13961953 0.11957136 0.11682451 -0.41874436 0.12216546 -0.10548498 -0.10548498 0.14347333 0.14347333 0.13395551 0.13395551 0.34276822 0.17533584 0.15274373 0.15637414 0.04460648 0.04460648 0.046550002 0.046550002 0.03384968 0.03384968 0.03384968 0.045870133 0.045870133 0.045870133 0.045870133 0.045870133 0.045870133

>  <experimental dG reference units>  (19) 
nM

>  <experimental dG reference field>  (19) 
IC50[nM]

>  <kJ/mol experimental dG>  (19) 
-44.21873297190643

>  <kcal/mol experimental dG>  (19) 
-10.568530825025436

>  <AmberAM1BCCCache>  (19) 
gASV2AMAAAAAAABdlCiMFm51bXB5Ll9jb3JlLm11bHRpYXJyYXmUjAZzY2FsYXKUk5SMBW51bXB5lIwFZHR5cGWUk5SMAmY4lImIh5RSlChLA4wBPJROTk5K/////0r/////SwB0lGJDCIZyO6wN2Py/lIaUUpRoA2gJQwh0FFzINE3yv5SGlFKUaANoCUMIdBRcyDRN8r+UhpRSlGgDaAlDCNJ/EKPe2xlAlIaUUpRoA2gJQwj3ovuT7NP2v5SGlFKUaANoCUMI96L7k+zT9r+UhpRSlGgDaAlDCDtpnyAwvuO/lIaUUpRoA2gJQwh7zAp9sysXwJSGlFKUaANoCUMIXpWIihWrIECUhpRSlGgDaAlDCDuIfwCw9BzAlIaUUpRoA2gJQwjFsPjmaxAAQJSGlFKUaANoCUMIN2DApcSd/7+UhpRSlGgDaAlDCLkP2HB8ffK/lIaUUpRoA2gJQwhypcQ4qzXzP5SGlFKUaANoCUMIaHhXgHGG+L+UhpRSlGgDaAlDCP8KVBnErfK/lIaUUpRoA2gJQwiiHDugyykdwJSGlFKUaANoCUMID/0WUMwlA0CUhpRSlGgDaAlDCPnfZpnqWRTAlIaUUpRoA2gJQwjowv97S6P5v5SGlFKUaANoCUMIrh6SeqWV+D+UhpRSlGgDaAlDCMg/Lt+vQ/c/lIaUUpRoA2gJQwg/6I0ybQUUwJSGlFKUaANoCUMIziKBesVg9j+UhpRSlGgDaAlDCEdKx5HpR/a/lIaUUpRoA2gJQwhHSseR6Uf2v5SGlFKUaANoCUMIhG5TJdCG+z+UhpRSlGgDaAlDCIRuUyXQhvs/lIaUUpRoA2gJQwiaW0PH7kf8P5SGlFKUaANoCUMImltDx+5H/D+UhpRSlGgDaAlDCIZ0AFRiGRBAlIaUUpRoA2gJQwiycq8dd38AQJSGlFKUaANoCUMIsUgzaQ0J/T+UhpRSlGgDaAlDCAwxn7Nz+v0/lIaUUpRoA2gJQwjkCl08jnfgP5SGlFKUaANoCUMI5ApdPI534D+UhpRSlGgDaAlDCOVqAqASit0/lIaUUpRoA2gJQwjlagKgEordP5SGlFKUaANoCUMIA8BKxwgl2j+UhpRSlGgDaAlDCAPASscIJdo/lIaUUpRoA2gJQwgDwErHCCXaP5SGlFKUaANoCUMI4daweaKK4j+UhpRSlGgDaAlDCOHWsHmiiuI/lIaUUpRoA2gJQwjh1rB5ooriP5SGlFKUaANoCUMI4daweaKK4j+UhpRSlGgDaAlDCOHWsHmiiuI/lIaUUpRoA2gJQwjh1rB5ooriP5SGlFKUZS4=

$$$$
5m
     RDKit          3D

 40 42  0  0  0  0  0  0  0  0999 V2000
  -15.3524  -19.2206  -25.9684 C   0  0  0  0  0  0  0  0  0  0  0  0
  -14.6526  -19.7081  -27.0823 C   0  0  0  0  0  0  0  0  0  0  0  0
  -15.8555  -20.1235  -25.0241 C   0  0  0  0  0  0  0  0  0  0  0  0
  -14.4541  -21.0636  -27.2485 C   0  0  0  0  0  0  0  0  0  0  0  0
  -15.6357  -21.4854  -25.1840 C   0  0  0  0  0  0  0  0  0  0  0  0
  -15.0526  -16.9445  -26.6871 N   0  0  0  0  0  0  0  0  0  0  0  0
  -14.9347  -21.9631  -26.2988 C   0  0  0  0  0  0  0  0  0  0  0  0
  -14.5888  -23.4446  -26.4247 C   0  0  0  0  0  0  0  0  0  0  0  0
  -15.2162  -15.5610  -26.5929 C   0  0  0  0  0  0  0  0  0  0  0  0
  -15.9031  -15.0059  -25.5037 C   0  0  0  0  0  0  0  0  0  0  0  0
  -15.4462  -12.8187  -26.3599 C   0  0  0  0  0  0  0  0  0  0  0  0
  -14.7773  -13.3552  -27.4525 C   0  0  0  0  0  0  0  0  0  0  0  0
  -16.0203  -13.6235  -25.3815 C   0  0  0  0  0  0  0  0  0  0  0  0
  -14.6768  -14.7359  -27.5934 C   0  0  0  0  0  0  0  0  0  0  0  0
  -16.5313  -15.9392  -24.4895 C   0  0  0  0  0  0  0  0  0  0  0  0
  -16.2584  -17.2435  -24.7671 N   0  0  0  0  0  0  0  0  0  0  0  0
  -15.5317  -17.7669  -25.8203 C   0  0  0  0  0  0  0  0  0  0  0  0
  -17.2406  -15.6098  -23.5374 O   0  0  0  0  0  0  0  0  0  0  0  0
  -15.7674  -24.3602  -26.0940 C   0  0  0  0  0  0  0  0  0  0  0  0
  -14.2652  -23.8414  -27.7410 O   0  0  0  0  0  0  0  0  0  0  0  0
  -13.3585  -23.6997  -25.5565 C   0  0  0  0  0  0  0  0  0  0  0  0
  -13.9802  -15.2817  -28.8279 C   0  0  0  0  0  0  0  0  0  0  0  0
  -15.5606  -11.4961  -26.2801 F   0  0  0  0  0  0  0  0  0  0  0  0
  -14.2525  -19.0464  -27.8382 H   0  0  0  0  0  0  0  0  0  0  0  0
  -16.3981  -19.7943  -24.1510 H   0  0  0  0  0  0  0  0  0  0  0  0
  -13.8938  -21.4078  -28.1049 H   0  0  0  0  0  0  0  0  0  0  0  0
  -15.9903  -22.1635  -24.4209 H   0  0  0  0  0  0  0  0  0  0  0  0
  -14.3604  -12.6891  -28.1964 H   0  0  0  0  0  0  0  0  0  0  0  0
  -16.5458  -13.1713  -24.5494 H   0  0  0  0  0  0  0  0  0  0  0  0
  -16.7352  -17.8915  -24.1540 H   0  0  0  0  0  0  0  0  0  0  0  0
  -16.6293  -24.0551  -26.6777 H   0  0  0  0  0  0  0  0  0  0  0  0
  -16.0069  -24.3345  -25.0330 H   0  0  0  0  0  0  0  0  0  0  0  0
  -15.5729  -25.4035  -26.3467 H   0  0  0  0  0  0  0  0  0  0  0  0
  -14.0509  -24.7825  -27.7322 H   0  0  0  0  0  0  0  0  0  0  0  0
  -12.5192  -23.0885  -25.8861 H   0  0  0  0  0  0  0  0  0  0  0  0
  -13.0630  -24.7313  -25.6290 H   0  0  0  0  0  0  0  0  0  0  0  0
  -13.5418  -23.4778  -24.5056 H   0  0  0  0  0  0  0  0  0  0  0  0
  -14.0711  -14.5965  -29.6735 H   0  0  0  0  0  0  0  0  0  0  0  0
  -14.4139  -16.2335  -29.1342 H   0  0  0  0  0  0  0  0  0  0  0  0
  -12.9197  -15.4294  -28.6265 H   0  0  0  0  0  0  0  0  0  0  0  0
  1  2  2  0
  1  3  1  0
  1 17  1  0
  2  4  1  0
  2 24  1  0
  3  5  2  0
  3 25  1  0
  4  7  2  0
  4 26  1  0
  5  7  1  0
  5 27  1  0
  6  9  1  0
  6 17  2  0
  7  8  1  0
  8 19  1  0
  8 20  1  0
  8 21  1  0
  9 10  2  0
  9 14  1  0
 10 13  1  0
 10 15  1  0
 11 12  1  0
 11 13  2  0
 11 23  1  0
 12 14  2  0
 12 28  1  0
 13 29  1  0
 14 22  1  0
 15 16  1  0
 15 18  2  0
 16 17  1  0
 16 30  1  0
 19 31  1  0
 19 32  1  0
 19 33  1  0
 20 34  1  0
 21 35  1  0
 21 36  1  0
 21 37  1  0
 22 38  1  0
 22 39  1  0
 22 40  1  0
M  END
>  <Name>  (20) 
5m

>  <IC50[nM]>  (20) 
0.5

>  <atom.dprop.PartialCharge>  (20) 
-0.1657049 -0.097843155 -0.097843155 -0.10810239 -0.10810239 -0.618879 -0.05380759 0.1969644 0.17603129 -0.15954849 0.12044427 -0.15637974 -0.108557135 -0.026848175 0.7023918 -0.50013006 0.5608079 -0.6088433 -0.11614446 -0.59231335 -0.11614446 -0.054510936 -0.14334026 0.14280933 0.14280933 0.14039898 0.14039898 0.15769789 0.17549779 0.34325045 0.044001713 0.044001713 0.044001713 0.40065074 0.044001713 0.044001713 0.044001713 0.056293048 0.056293048 0.056293048

>  <experimental dG reference units>  (20) 
nM

>  <experimental dG reference field>  (20) 
IC50[nM]

>  <kJ/mol experimental dG>  (20) 
-53.420101846133576

>  <kcal/mol experimental dG>  (20) 
-12.767710766284315

>  <AmberAM1BCCCache>  (20) 
gASVUwMAAAAAAABdlCiMFm51bXB5Ll9jb3JlLm11bHRpYXJyYXmUjAZzY2FsYXKUk5SMBW51bXB5lIwFZHR5cGWUk5SMAmY4lImIh5RSlChLA4wBPJROTk5K/////0r/////SwB0lGJDCGABkFsHc/y/lIaUUpRoA2gJQwjAkmJFKZHyv5SGlFKUaANoCUMIwJJiRSmR8r+UhpRSlGgDaAlDCHMvjhcKh/a/lIaUUpRoA2gJQwhzL44XCof2v5SGlFKUaANoCUMI8atUbG7bHMCUhpRSlGgDaAlDCAV0OCFCteO/lIaUUpRoA2gJQwikz8JZxU4CQJSGlFKUaANoCUMIEO+0KzBk/z+UhpRSlGgDaAlDCED9oFvnp/6/lIaUUpRoA2gJQwj0/tvTF4z0P5SGlFKUaANoCUMI+teDxDcE+r+UhpRSlGgDaAlDCElvBLVC+/O/lIaUUpRoA2gJQwjAA2LFuBncv5SGlFKUaANoCUMISIVvdZulIECUhpRSlGgDaAlDCNTtHb2VKhfAlIaUUpRoA2gJQwgFYqCkxrgZQJSGlFKUaANoCUMIzTxtyr80HcCUhpRSlGgDaAlDCHzBh4tJ1Pa/lIaUUpRoA2gJQwhJB3F5+EYcwJSGlFKUaANoCUMIfMGHi0nU9r+UhpRSlGgDaAlDCB+V1IVMY+K/lIaUUpRoA2gJQwhNSEx81J75v5SGlFKUaANoCUMIfevIUCNz+z+UhpRSlGgDaAlDCH3ryFAjc/s/lIaUUpRoA2gJQwjY0zSbiWT8P5SGlFKUaANoCUMI2NM0m4lk/D+UhpRSlGgDaAlDCAbIasA83fw/lIaUUpRoA2gJQwhdMkvJjmkAQJSGlFKUaANoCUMIXFTOKW4OEECUhpRSlGgDaAlDCKaRXfeR4uE/lIaUUpRoA2gJQwimkV33keLhP5SGlFKUaANoCUMIppFd95Hi4T+UhpRSlGgDaAlDCO6GvJADJRNAlIaUUpRoA2gJQwimkV33keLhP5SGlFKUaANoCUMIppFd95Hi4T+UhpRSlGgDaAlDCKaRXfeR4uE/lIaUUpRoA2gJQwjoWC3d7SXkP5SGlFKUaANoCUMI6Fgt3e0l5D+UhpRSlGgDaAlDCOhYLd3tJeQ/lIaUUpRlLg==

$$$$
5n
     RDKit          3D

 44 46  0  0  0  0  0  0  0  0999 V2000
  -15.1971  -19.2586  -25.9604 C   0  0  0  0  0  0  0  0  0  0  0  0
  -15.4619  -20.0875  -24.8625 C   0  0  0  0  0  0  0  0  0  0  0  0
  -14.7320  -19.8457  -27.1467 C   0  0  0  0  0  0  0  0  0  0  0  0
  -15.3732  -17.7885  -25.8846 C   0  0  0  0  0  0  0  0  0  0  0  0
  -15.2356  -21.4582  -24.9463 C   0  0  0  0  0  0  0  0  0  0  0  0
  -14.5189  -21.2175  -27.2320 C   0  0  0  0  0  0  0  0  0  0  0  0
  -14.7643  -22.0441  -26.1317 C   0  0  0  0  0  0  0  0  0  0  0  0
  -16.1228  -17.2312  -24.8599 N   0  0  0  0  0  0  0  0  0  0  0  0
  -16.3920  -15.9186  -24.6105 C   0  0  0  0  0  0  0  0  0  0  0  0
  -14.8661  -16.9841  -26.7605 N   0  0  0  0  0  0  0  0  0  0  0  0
  -15.0231  -15.5933  -26.6800 C   0  0  0  0  0  0  0  0  0  0  0  0
  -15.7490  -15.0059  -25.6350 C   0  0  0  0  0  0  0  0  0  0  0  0
  -15.8668  -13.6148  -25.5520 C   0  0  0  0  0  0  0  0  0  0  0  0
  -15.2558  -12.8198  -26.5261 C   0  0  0  0  0  0  0  0  0  0  0  0
  -14.5498  -13.4080  -27.5783 C   0  0  0  0  0  0  0  0  0  0  0  0
  -14.4351  -14.7960  -27.6619 C   0  0  0  0  0  0  0  0  0  0  0  0
  -17.0983  -15.5613  -23.6650 O   0  0  0  0  0  0  0  0  0  0  0  0
  -14.4776  -23.5653  -26.1895 C   0  0  0  0  0  0  0  0  0  0  0  0
  -15.7149  -24.3179  -25.6602 C   0  0  0  0  0  0  0  0  0  0  0  0
  -13.2176  -23.8359  -25.3472 C   0  0  0  0  0  0  0  0  0  0  0  0
  -14.1517  -23.9464  -27.5429 O   0  0  0  0  0  0  0  0  0  0  0  0
  -15.3497  -11.4734  -26.4630 F   0  0  0  0  0  0  0  0  0  0  0  0
  -14.5501  -25.2004  -28.1255 C   0  0  0  0  0  0  0  0  0  0  0  0
  -13.9103  -26.4874  -27.5451 C   0  0  0  0  0  0  0  0  0  0  0  0
  -12.5968  -26.7509  -28.0034 O   0  0  0  0  0  0  0  0  0  0  0  0
  -15.8196  -19.6850  -23.9247 H   0  0  0  0  0  0  0  0  0  0  0  0
  -14.5225  -19.2408  -28.0188 H   0  0  0  0  0  0  0  0  0  0  0  0
  -15.4176  -22.0605  -24.0678 H   0  0  0  0  0  0  0  0  0  0  0  0
  -14.1391  -21.6264  -28.1554 H   0  0  0  0  0  0  0  0  0  0  0  0
  -16.6125  -17.8632  -24.2414 H   0  0  0  0  0  0  0  0  0  0  0  0
  -16.4177  -13.1519  -24.7449 H   0  0  0  0  0  0  0  0  0  0  0  0
  -14.0836  -12.7847  -28.3266 H   0  0  0  0  0  0  0  0  0  0  0  0
  -13.8819  -15.2499  -28.4711 H   0  0  0  0  0  0  0  0  0  0  0  0
  -15.8115  -24.1761  -24.5859 H   0  0  0  0  0  0  0  0  0  0  0  0
  -15.7466  -25.3887  -25.8320 H   0  0  0  0  0  0  0  0  0  0  0  0
  -16.5770  -23.9172  -26.1750 H   0  0  0  0  0  0  0  0  0  0  0  0
  -13.4391  -23.9417  -24.2857 H   0  0  0  0  0  0  0  0  0  0  0  0
  -12.5508  -22.9864  -25.4295 H   0  0  0  0  0  0  0  0  0  0  0  0
  -12.6588  -24.7122  -25.6687 H   0  0  0  0  0  0  0  0  0  0  0  0
  -14.3407  -25.1537  -29.1933 H   0  0  0  0  0  0  0  0  0  0  0  0
  -15.6352  -25.2750  -28.0624 H   0  0  0  0  0  0  0  0  0  0  0  0
  -14.5229  -27.3485  -27.8131 H   0  0  0  0  0  0  0  0  0  0  0  0
  -13.8881  -26.4540  -26.4637 H   0  0  0  0  0  0  0  0  0  0  0  0
  -12.6445  -27.1725  -28.8674 H   0  0  0  0  0  0  0  0  0  0  0  0
  1  2  2  0
  1  3  1  0
  1  4  1  0
  2  5  1  0
  2 26  1  0
  3  6  2  0
  3 27  1  0
  4  8  1  0
  4 10  2  0
  5  7  2  0
  5 28  1  0
  6  7  1  0
  6 29  1  0
  7 18  1  0
  8  9  1  0
  8 30  1  0
  9 12  1  0
  9 17  2  0
 10 11  1  0
 11 12  2  0
 11 16  1  0
 12 13  1  0
 13 14  2  0
 13 31  1  0
 14 15  1  0
 14 22  1  0
 15 16  2  0
 15 32  1  0
 16 33  1  0
 18 19  1  0
 18 20  1  0
 18 21  1  0
 19 34  1  0
 19 35  1  0
 19 36  1  0
 20 37  1  0
 20 38  1  0
 20 39  1  0
 21 23  1  0
 23 24  1  0
 23 40  1  0
 23 41  1  0
 24 25  1  0
 24 42  1  0
 24 43  1  0
 25 44  1  0
M  END
>  <Name>  (21) 
5n

>  <IC50[nM]>  (21) 
14

>  <atom.dprop.PartialCharge>  (21) 
-0.16282204 -0.09999561 -0.09999561 0.5669543 -0.11312948 -0.11312948 -0.05909118 -0.50017154 0.7033657 -0.6166085 0.18430783 -0.16079986 -0.10273121 0.10944536 -0.13085817 -0.10297288 -0.6120724 0.20051114 -0.10556979 -0.10556979 -0.41923413 -0.13952073 0.11977003 0.11887807 -0.5947868 0.1435721 0.1435721 0.13405429 0.13405429 0.342867 0.17543462 0.15284252 0.15647292 0.045968913 0.045968913 0.045968913 0.045968913 0.045968913 0.045968913 0.047361456 0.047361456 0.03941863 0.03941863 0.40358314

>  <experimental dG reference units>  (21) 
nM

>  <experimental dG reference field>  (21) 
IC50[nM]

>  <kJ/mol experimental dG>  (21) 
-45.10840631802634

>  <kcal/mol experimental dG>  (21) 
-10.781167858036888

>  <AmberAM1BCCCache>  (21) 
gASVnwMAAAAAAABdlCiMFm51bXB5Ll9jb3JlLm11bHRpYXJyYXmUjAZzY2FsYXKUk5SMBW51bXB5lIwFZHR5cGWUk5SMAmY4lImIh5RSlChLA4wBPJROTk5K/////0r/////SwB0lGJDCMOSRyOV3Py/lIaUUpRoA2gJQwiwNGg/vFHyv5SGlFKUaANoCUMIsDRoP7xR8r+UhpRSlGgDaAlDCMN3TcW82hlAlIaUUpRoA2gJQwjWwEXfl/D2v5SGlFKUaANoCUMI1sBF35fw9r+UhpRSlGgDaAlDCOGDl1J8SeW/lIaUUpRoA2gJQwiK1M1a1SwXwJSGlFKUaANoCUMIVhGnm4SqIECUhpRSlGgDaAlDCEqQQt7R9RzAlIaUUpRoA2gJQwinoHIrKA4AQJSGlFKUaANoCUMIdIDMHEyi/7+UhpRSlGgDaAlDCPUv5OcDgvK/lIaUUpRoA2gJQwg2hbjBIzHzP5SGlFKUaANoCUMIpZhj9/iK+L+UhpRSlGgDaAlDCDsrYJBLsvK/lIaUUpRoA2gJQwjfJd+T2x4dwJSGlFKUaANoCUMIw/hab9WqAkCUhpRSlGgDaAlDCFZ2neO90/W/lIaUUpRoA2gJQwhWdp3jvdP1v5SGlFKUaANoCUMIffExJn36E8CUhpRSlGgDaAlDCCXjC/PSp/m/lIaUUpRoA2gJQwhy/oUDHpH4P5SGlFKUaANoCUMIN58Oo5kn8j+UhpRSlGgDaAlDCC3vAS0mPRzAlIaUUpRoA2gJQwjqS4WCbJr7P5SGlFKUaANoCUMI6kuFgmya+z+UhpRSlGgDaAlDCF47N1BnQ/w/lIaUUpRoA2gJQwheOzdQZ0P8P5SGlFKUaANoCUMISGtcYFIkEECUhpRSlGgDaAlDCJNiKWIzfQBAlIaUUpRoA2gJQwh0KCfyhQT9P5SGlFKUaANoCUMIzxCTPOz1/T+UhpRSlGgDaAlDCNyfoDoEIeI/lIaUUpRoA2gJQwjcn6A6BCHiP5SGlFKUaANoCUMI3J+gOgQh4j+UhpRSlGgDaAlDCNyfoDoEIeI/lIaUUpRoA2gJQwjcn6A6BCHiP5SGlFKUaANoCUMI3J+gOgQh4j+UhpRSlGgDaAlDCBf/F5uIiug/lIaUUpRoA2gJQwgX/xebiIroP5SGlFKUaANoCUMIoZ1qwVFN1j+UhpRSlGgDaAlDCKGdasFRTdY/lIaUUpRoA2gJQwiUos4eoAoTQJSGlFKUZS4=

$$$$
8c
     RDKit          3D

 43 46  0  0  0  0  0  0  0  0999 V2000
  -14.7211  -14.6025  -27.6629 C   0  0  0  0  0  0  0  0  0  0  0  0
  -15.2227  -15.4419  -26.6577 C   0  0  0  0  0  0  0  0  0  0  0  0
  -14.8753  -13.2206  -27.5411 C   0  0  0  0  0  0  0  0  0  0  0  0
  -15.9006  -14.8913  -25.5607 C   0  0  0  0  0  0  0  0  0  0  0  0
  -15.0367  -16.8328  -26.7554 N   0  0  0  0  0  0  0  0  0  0  0  0
  -15.5348  -12.6758  -26.4366 C   0  0  0  0  0  0  0  0  0  0  0  0
  -16.0572  -13.5069  -25.4443 C   0  0  0  0  0  0  0  0  0  0  0  0
  -16.4664  -15.8352  -24.5203 C   0  0  0  0  0  0  0  0  0  0  0  0
  -16.1535  -17.1340  -24.7829 N   0  0  0  0  0  0  0  0  0  0  0  0
  -17.1585  -15.5152  -23.5539 O   0  0  0  0  0  0  0  0  0  0  0  0
  -15.4774  -17.6632  -25.8670 C   0  0  0  0  0  0  0  0  0  0  0  0
  -15.3194  -19.1319  -26.0027 C   0  0  0  0  0  0  0  0  0  0  0  0
  -14.6738  -19.6479  -27.1346 C   0  0  0  0  0  0  0  0  0  0  0  0
  -14.5210  -21.0162  -27.3081 C   0  0  0  0  0  0  0  0  0  0  0  0
  -14.9958  -21.9117  -26.3456 C   0  0  0  0  0  0  0  0  0  0  0  0
  -15.6361  -21.4060  -25.2096 C   0  0  0  0  0  0  0  0  0  0  0  0
  -15.8086  -20.0317  -25.0439 C   0  0  0  0  0  0  0  0  0  0  0  0
  -14.0699  -15.1067  -28.7383 F   0  0  0  0  0  0  0  0  0  0  0  0
  -15.6737  -11.3360  -26.3349 F   0  0  0  0  0  0  0  0  0  0  0  0
  -14.8817  -23.4147  -26.5564 C   0  0  0  0  0  0  0  0  0  0  0  0
  -16.2724  -24.0629  -26.5806 C   0  0  0  0  0  0  0  0  0  0  0  0
  -16.1618  -25.5955  -26.6685 C   0  0  0  0  0  0  0  0  0  0  0  0
  -15.3848  -26.1077  -25.5404 N   0  0  0  0  0  0  0  0  0  0  0  0
  -14.0195  -25.5854  -25.5808 C   0  0  0  0  0  0  0  0  0  0  0  0
  -14.0367  -24.0524  -25.4454 C   0  0  0  0  0  0  0  0  0  0  0  0
  -14.4760  -12.5688  -28.3035 H   0  0  0  0  0  0  0  0  0  0  0  0
  -16.5727  -13.0701  -24.5997 H   0  0  0  0  0  0  0  0  0  0  0  0
  -16.5893  -17.7842  -24.1422 H   0  0  0  0  0  0  0  0  0  0  0  0
  -14.2967  -18.9915  -27.9079 H   0  0  0  0  0  0  0  0  0  0  0  0
  -14.0472  -21.3597  -28.2139 H   0  0  0  0  0  0  0  0  0  0  0  0
  -16.0174  -22.0763  -24.4526 H   0  0  0  0  0  0  0  0  0  0  0  0
  -16.3278  -19.6857  -24.1613 H   0  0  0  0  0  0  0  0  0  0  0  0
  -14.3921  -23.5606  -27.5193 H   0  0  0  0  0  0  0  0  0  0  0  0
  -16.8293  -23.7815  -25.6869 H   0  0  0  0  0  0  0  0  0  0  0  0
  -16.8439  -23.6831  -27.4275 H   0  0  0  0  0  0  0  0  0  0  0  0
  -15.6993  -25.8939  -27.6093 H   0  0  0  0  0  0  0  0  0  0  0  0
  -17.1563  -26.0413  -26.6534 H   0  0  0  0  0  0  0  0  0  0  0  0
  -15.3470  -27.1149  -25.6055 H   0  0  0  0  0  0  0  0  0  0  0  0
  -13.5305  -25.8836  -26.5082 H   0  0  0  0  0  0  0  0  0  0  0  0
  -13.4414  -26.0237  -24.7672 H   0  0  0  0  0  0  0  0  0  0  0  0
  -14.4317  -23.7701  -24.4695 H   0  0  0  0  0  0  0  0  0  0  0  0
  -13.0186  -23.6650  -25.4853 H   0  0  0  0  0  0  0  0  0  0  0  0
  -15.8240  -25.8182  -24.6781 H   0  0  0  0  0  0  0  0  0  0  0  0
  1  2  2  0
  1  3  1  0
  1 18  1  0
  2  4  1  0
  2  5  1  0
  3  6  2  0
  3 26  1  0
  4  7  2  0
  4  8  1  0
  5 11  2  0
  6  7  1  0
  6 19  1  0
  7 27  1  0
  8  9  1  0
  8 10  2  0
  9 11  1  0
  9 28  1  0
 11 12  1  0
 12 13  2  0
 12 17  1  0
 13 14  1  0
 13 29  1  0
 14 15  2  0
 14 30  1  0
 15 16  1  0
 15 20  1  0
 16 17  2  0
 16 31  1  0
 17 32  1  0
 20 21  1  0
 20 25  1  0
 20 33  1  0
 21 22  1  0
 21 34  1  0
 21 35  1  0
 22 23  1  0
 22 36  1  0
 22 37  1  0
 23 24  1  0
 23 38  1  0
 23 43  1  0
 24 25  1  0
 24 39  1  0
 24 40  1  0
 25 41  1  0
 25 42  1  0
M  CHG  1  23   1
M  END
>  <Name>  (22) 
8c

>  <IC50[nM]>  (22) 
38

>  <atom.dprop.PartialCharge>  (22) 
0.16948184 0.17126699 -0.17953742 -0.14440528 -0.5993152 0.13941853 -0.10551883 0.70809114 -0.49227998 -0.6013867 0.57059526 -0.1540847 -0.07614568 -0.12448466 -0.09350619 -0.12448466 -0.07614568 -0.11957854 -0.13038951 -0.023788307 -0.10304376 0.106153324 -0.7650473 0.106153324 -0.10304376 0.17734215 0.18485494 0.34868973 0.14853281 0.13177598 0.13177598 0.14853281 0.08342661 0.08881721 0.08881721 0.10666081 0.10666081 0.45409104 0.10666081 0.10666081 0.08881721 0.08881721 0.45409104

>  <experimental dG reference units>  (22) 
nM

>  <experimental dG reference field>  (22) 
IC50[nM]

>  <kJ/mol experimental dG>  (22) 
-42.61772257200248

>  <kcal/mol experimental dG>  (22) 
-10.185880155832331

>  <AmberAM1BCCCache>  (22) 
gASVjAMAAAAAAABdlCiMFm51bXB5Ll9jb3JlLm11bHRpYXJyYXmUjAZzY2FsYXKUk5SMBW51bXB5lIwFZHR5cGWUk5SMAmY4lImIh5RSlChLA4wBPJROTk5K/////0r/////SwB0lGJDCGqmCOvcTABAlIaUUpRoA2gJQwhEUzDPMCL2P5SGlFKUaANoCUMIKk9WGtnJAMCUhpRSlGgDaAlDCN8JX2IRNPm/lIaUUpRoA2gJQwj5KTWPxrIbwJSGlFKUaANoCUMIl7ntsklD/D+UhpRSlGgDaAlDCDrIKb4PsvW/lIaUUpRoA2gJQwhB1OVmG6sgQJSGlFKUaANoCUMIKEutgt1PF8CUhpRSlGgDaAlDCDq7mPQRCBzAlIaUUpRoA2gJQwiEHYaqBpYYQJSGlFKUaANoCUMIXypmb4Pd9b+UhpRSlGgDaAlDCJ+1TK7Esu+/lIaUUpRoA2gJQwjwmAFT3JT3v5SGlFKUaANoCUMI/uOsc8mL8r+UhpRSlGgDaAlDCPCYAVPclPe/lIaUUpRoA2gJQwiftUyuxLLvv5SGlFKUaANoCUMIjjjydaxM9b+UhpRSlGgDaAlDCOogXsASPva/lIaUUpRoA2gJQwiKby+pQNbOv5SGlFKUaANoCUMI7VQKg/4q9L+UhpRSlGgDaAlDCA/nVhe0UvQ/lIaUUpRoA2gJQwgFuv9G7vwhwJSGlFKUaANoCUMID+dWF7RS9D+UhpRSlGgDaAlDCO1UCoP+KvS/lIaUUpRoA2gJQwiFaaA31q8AQJSGlFKUaANoCUMIQFTOrRiJAUCUhpRSlGgDaAlDCHzzmyJcDRBAlIaUUpRoA2gJQwhAFXk4wbv+P5SGlFKUaANoCUMIppnpyupz+T+UhpRSlGgDaAlDCKaZ6crqc/k/lIaUUpRoA2gJQwhAFXk4wbv+P5SGlFKUaANoCUMIxvlXjAmn6j+UhpRSlGgDaAlDCPSObtMGtvE/lIaUUpRoA2gJQwj0jm7TBrbxP5SGlFKUaANoCUMIe1G6Yaop9D+UhpRSlGgDaAlDCHtRumGqKfQ/lIaUUpRoA2gJQwhWoap+2l4VQJSGlFKUaANoCUMIe1G6Yaop9D+UhpRSlGgDaAlDCHtRumGqKfQ/lIaUUpRoA2gJQwj0jm7TBrbxP5SGlFKUaANoCUMI9I5u0wa28T+UhpRSlGgDaAlDCFahqn7aXhVAlIaUUpRlLg==

$$$$
5o
     RDKit          3D

 47 49  0  0  0  0  0  0  0  0999 V2000
  -15.3450  -19.1365  -26.0277 C   0  0  0  0  0  0  0  0  0  0  0  0
  -15.8287  -20.0041  -25.0403 C   0  0  0  0  0  0  0  0  0  0  0  0
  -14.6494  -19.6781  -27.1161 C   0  0  0  0  0  0  0  0  0  0  0  0
  -15.6114  -21.3734  -25.1437 C   0  0  0  0  0  0  0  0  0  0  0  0
  -14.4534  -21.0504  -27.2249 C   0  0  0  0  0  0  0  0  0  0  0  0
  -15.0797  -16.8396  -26.7962 N   0  0  0  0  0  0  0  0  0  0  0  0
  -14.9411  -21.9202  -26.2491 C   0  0  0  0  0  0  0  0  0  0  0  0
  -14.7174  -23.4472  -26.3565 C   0  0  0  0  0  0  0  0  0  0  0  0
  -15.2121  -15.4451  -26.6641 C   0  0  0  0  0  0  0  0  0  0  0  0
  -15.8856  -14.9026  -25.5597 C   0  0  0  0  0  0  0  0  0  0  0  0
  -15.4771  -12.6758  -26.3957 C   0  0  0  0  0  0  0  0  0  0  0  0
  -14.8064  -13.2106  -27.4898 C   0  0  0  0  0  0  0  0  0  0  0  0
  -16.0203  -13.5169  -25.4209 C   0  0  0  0  0  0  0  0  0  0  0  0
  -14.6721  -14.5903  -27.6396 C   0  0  0  0  0  0  0  0  0  0  0  0
  -16.4601  -15.8518  -24.5285 C   0  0  0  0  0  0  0  0  0  0  0  0
  -16.2181  -17.1526  -24.8371 N   0  0  0  0  0  0  0  0  0  0  0  0
  -15.5316  -17.6723  -25.9177 C   0  0  0  0  0  0  0  0  0  0  0  0
  -17.0968  -15.5416  -23.5233 O   0  0  0  0  0  0  0  0  0  0  0  0
  -16.0886  -24.1459  -26.3732 C   0  0  0  0  0  0  0  0  0  0  0  0
  -13.9745  -23.7493  -27.5590 O   0  0  0  0  0  0  0  0  0  0  0  0
  -13.8348  -23.8741  -25.1800 C   0  0  0  0  0  0  0  0  0  0  0  0
  -13.9391  -15.1231  -28.8574 C   0  0  0  0  0  0  0  0  0  0  0  0
  -15.6115  -11.3343  -26.3138 F   0  0  0  0  0  0  0  0  0  0  0  0
  -12.5786  -23.4229  -27.6930 C   0  0  0  0  0  0  0  0  0  0  0  0
  -11.5993  -24.0909  -26.7047 C   0  0  0  0  0  0  0  0  0  0  0  0
  -10.2664  -23.7087  -26.9378 O   0  0  0  0  0  0  0  0  0  0  0  0
  -16.3593  -19.6397  -24.1712 H   0  0  0  0  0  0  0  0  0  0  0  0
  -14.2603  -19.0378  -27.8948 H   0  0  0  0  0  0  0  0  0  0  0  0
  -15.9770  -21.9973  -24.3439 H   0  0  0  0  0  0  0  0  0  0  0  0
  -13.9076  -21.4302  -28.0753 H   0  0  0  0  0  0  0  0  0  0  0  0
  -14.3905  -12.5391  -28.2267 H   0  0  0  0  0  0  0  0  0  0  0  0
  -16.5404  -13.0953  -24.5734 H   0  0  0  0  0  0  0  0  0  0  0  0
  -16.6563  -17.8081  -24.2063 H   0  0  0  0  0  0  0  0  0  0  0  0
  -16.6433  -24.0186  -25.4478 H   0  0  0  0  0  0  0  0  0  0  0  0
  -16.0953  -25.2082  -26.5876 H   0  0  0  0  0  0  0  0  0  0  0  0
  -16.6148  -23.6851  -27.1907 H   0  0  0  0  0  0  0  0  0  0  0  0
  -14.3494  -23.7841  -24.2225 H   0  0  0  0  0  0  0  0  0  0  0  0
  -12.9787  -23.2079  -25.1484 H   0  0  0  0  0  0  0  0  0  0  0  0
  -13.4451  -24.8835  -25.2653 H   0  0  0  0  0  0  0  0  0  0  0  0
  -13.7952  -14.3631  -29.6261 H   0  0  0  0  0  0  0  0  0  0  0  0
  -14.5198  -15.9337  -29.2895 H   0  0  0  0  0  0  0  0  0  0  0  0
  -12.9647  -15.5167  -28.5732 H   0  0  0  0  0  0  0  0  0  0  0  0
  -12.4676  -22.3457  -27.5952 H   0  0  0  0  0  0  0  0  0  0  0  0
  -12.2697  -23.6429  -28.7147 H   0  0  0  0  0  0  0  0  0  0  0  0
  -11.6557  -25.1731  -26.8146 H   0  0  0  0  0  0  0  0  0  0  0  0
  -11.8403  -23.8769  -25.6698 H   0  0  0  0  0  0  0  0  0  0  0  0
  -10.1870  -22.7599  -26.8041 H   0  0  0  0  0  0  0  0  0  0  0  0
  1  2  2  0
  1  3  1  0
  1 17  1  0
  2  4  1  0
  2 27  1  0
  3  5  2  0
  3 28  1  0
  4  7  2  0
  4 29  1  0
  5  7  1  0
  5 30  1  0
  6  9  1  0
  6 17  2  0
  7  8  1  0
  8 19  1  0
  8 20  1  0
  8 21  1  0
  9 10  2  0
  9 14  1  0
 10 13  1  0
 10 15  1  0
 11 12  1  0
 11 13  2  0
 11 23  1  0
 12 14  2  0
 12 31  1  0
 13 32  1  0
 14 22  1  0
 15 16  1  0
 15 18  2  0
 16 17  1  0
 16 33  1  0
 19 34  1  0
 19 35  1  0
 19 36  1  0
 20 24  1  0
 21 37  1  0
 21 38  1  0
 21 39  1  0
 22 40  1  0
 22 41  1  0
 22 42  1  0
 24 25  1  0
 24 43  1  0
 24 44  1  0
 25 26  1  0
 25 45  1  0
 25 46  1  0
 26 47  1  0
M  END
>  <Name>  (23) 
5o

>  <IC50[nM]>  (23) 
1.5

>  <atom.dprop.PartialCharge>  (23) 
-0.1623454 -0.09834955 -0.09834955 -0.1133378 -0.1133378 -0.61890894 -0.059299503 0.20030281 0.17600137 -0.15957841 0.12041435 -0.15640967 -0.10858706 -0.026878092 0.7023619 -0.50016 0.56077796 -0.60887325 -0.10577811 -0.4194425 -0.10577811 -0.054540854 -0.14337018 0.11956171 0.11866975 -0.5949952 0.14336377 0.14336377 0.13384596 0.13384596 0.15766796 0.17546788 0.34322053 0.045760594 0.045760594 0.045760594 0.045760594 0.045760594 0.045760594 0.05626313 0.05626313 0.05626313 0.04715313 0.04715313 0.03921031 0.03921031 0.40337482

>  <experimental dG reference units>  (23) 
nM

>  <experimental dG reference field>  (23) 
IC50[nM]

>  <kJ/mol experimental dG>  (23) 
-50.67977458861892

>  <kcal/mol experimental dG>  (23) 
-12.112756832843909

>  <AmberAM1BCCCache>  (23) 
gASV2AMAAAAAAABdlCiMFm51bXB5Ll9jb3JlLm11bHRpYXJyYXmUjAZzY2FsYXKUk5SMBW51bXB5lIwFZHR5cGWUk5SMAmY4lImIh5RSlChLA4wBPJROTk5K/////0r/////SwB0lGJDCPSwr1W4pfy/lIaUUpRoA2gJQwjIS4ruSmPyv5SGlFKUaANoCUMIyEuK7kpj8r+UhpRSlGgDaAlDCAbfrRG7ufa/lIaUUpRoA2gJQwgG360Ru7n2v5SGlFKUaANoCUMI1pfcqhroHMCUhpRSlGgDaAlDCCvTdxWkGuS/lIaUUpRoA2gJQwjZ3Vz79j4DQJSGlFKUaANoCUMIwjoR2sZh/z+UhpRSlGgDaAlDCI6xRK1Qqv6/lIaUUpRoA2gJQwimSjiCron0P5SGlFKUaANoCUMIR4wnFqEG+r+UhpRSlGgDaAlDCJcjqAas/fO/lIaUUpRoA2gJQwj31PALXiPcv5SGlFKUaANoCUMIvw47S06lIECUhpRSlGgDaAlDCOjahhEwKxfAlIaUUpRoA2gJQwjydDdQLLgZQJSGlFKUaANoCUMI4CnWHlo1HcCUhpRSlGgDaAlDCPmDt+PbRfa/lIaUUpRoA2gJQwhl7uItZ1kUwJSGlFKUaANoCUMI+YO349tF9r+UhpRSlGgDaAlDCLr9GykfaOK/lIaUUpRoA2gJQwib/O/NPaH5v5SGlFKUaANoCUMI/OShKLOX+D+UhpRSlGgDaAlDCOf3sYaU1vc/lIaUUpRoA2gJQwjQ8DaMyGscwJSGlFKUaANoCUMI0jRj092I+z+UhpRSlGgDaAlDCNI0Y9PdiPs/lIaUUpRoA2gJQwhFJBWh2DH8P5SGlFKUaANoCUMIRSQVodgx/D+UhpRSlGgDaAlDCP4OQxcbC/0/lIaUUpRoA2gJQwg2WHkgWmgAQJSGlFKUaANoCUMISGdl1dMNEECUhpRSlGgDaAlDCDZoVC12XuI/lIaUUpRoA2gJQwg2aFQtdl7iP5SGlFKUaANoCUMINmhULXZe4j+UhpRSlGgDaAlDCDZoVC12XuI/lIaUUpRoA2gJQwg2aFQtdl7iP5SGlFKUaANoCUMINmhULXZe4j+UhpRSlGgDaAlDCEzw5TkbIeQ/lIaUUpRoA2gJQwhM8OU5GyHkP5SGlFKUaANoCUMITPDlORsh5D+UhpRSlGgDaAlDCMWS+EDxq+A/lIaUUpRoA2gJQwjFkvhA8avgP5SGlFKUaANoCUMIxM+B0M6N2j+UhpRSlGgDaAlDCMTPgdDOjdo/lIaUUpRoA2gJQwjamVM8aSQTQJSGlFKUZS4=

$$$$
8b
     RDKit          3D

 48 51  0  0  0  0  0  0  0  0999 V2000
  -14.4976  -14.8078  -27.6041 C   0  0  0  0  0  0  0  0  0  0  0  0
  -15.0860  -15.6146  -26.6121 C   0  0  0  0  0  0  0  0  0  0  0  0
  -14.5776  -13.4189  -27.4910 C   0  0  0  0  0  0  0  0  0  0  0  0
  -15.7974  -15.0175  -25.5617 C   0  0  0  0  0  0  0  0  0  0  0  0
  -14.9497  -17.0161  -26.6693 N   0  0  0  0  0  0  0  0  0  0  0  0
  -15.2599  -12.8300  -26.4299 C   0  0  0  0  0  0  0  0  0  0  0  0
  -15.8868  -13.6238  -25.4651 C   0  0  0  0  0  0  0  0  0  0  0  0
  -16.4709  -15.9214  -24.5493 C   0  0  0  0  0  0  0  0  0  0  0  0
  -16.1516  -17.2326  -24.7414 N   0  0  0  0  0  0  0  0  0  0  0  0
  -17.2464  -15.5613  -23.6634 O   0  0  0  0  0  0  0  0  0  0  0  0
  -15.4317  -17.8110  -25.7710 C   0  0  0  0  0  0  0  0  0  0  0  0
  -15.2745  -19.2883  -25.8445 C   0  0  0  0  0  0  0  0  0  0  0  0
  -14.7650  -19.8714  -27.0158 C   0  0  0  0  0  0  0  0  0  0  0  0
  -14.6263  -21.2503  -27.1285 C   0  0  0  0  0  0  0  0  0  0  0  0
  -14.9818  -22.0879  -26.0683 C   0  0  0  0  0  0  0  0  0  0  0  0
  -15.4738  -21.5135  -24.8915 C   0  0  0  0  0  0  0  0  0  0  0  0
  -15.6247  -20.1316  -24.7809 C   0  0  0  0  0  0  0  0  0  0  0  0
  -15.3111  -11.4823  -26.3542 F   0  0  0  0  0  0  0  0  0  0  0  0
  -14.9414  -23.4608  -26.2022 N   0  0  0  0  0  0  0  0  0  0  0  0
  -16.1549  -23.9516  -26.9975 C   0  0  0  0  0  0  0  0  0  0  0  0
  -16.1562  -25.4776  -27.1371 C   0  0  0  0  0  0  0  0  0  0  0  0
  -14.9559  -25.8533  -28.0095 N   0  0  0  0  0  0  0  0  0  0  0  0
  -13.6649  -25.5179  -27.2581 C   0  0  0  0  0  0  0  0  0  0  0  0
  -13.6349  -24.0190  -26.8149 C   0  0  0  0  0  0  0  0  0  0  0  0
  -15.0017  -27.3550  -28.3866 C   0  0  0  0  0  0  0  0  0  0  0  0
  -14.1111  -12.7839  -28.2306 H   0  0  0  0  0  0  0  0  0  0  0  0
  -16.4256  -13.1525  -24.6535 H   0  0  0  0  0  0  0  0  0  0  0  0
  -16.6444  -17.8520  -24.1113 H   0  0  0  0  0  0  0  0  0  0  0  0
  -14.4912  -19.2630  -27.8667 H   0  0  0  0  0  0  0  0  0  0  0  0
  -14.2683  -21.6534  -28.0631 H   0  0  0  0  0  0  0  0  0  0  0  0
  -15.7622  -22.1415  -24.0621 H   0  0  0  0  0  0  0  0  0  0  0  0
  -16.0195  -19.7338  -23.8570 H   0  0  0  0  0  0  0  0  0  0  0  0
  -16.1744  -23.5056  -27.9908 H   0  0  0  0  0  0  0  0  0  0  0  0
  -17.0548  -23.6031  -26.5107 H   0  0  0  0  0  0  0  0  0  0  0  0
  -16.0869  -25.9943  -26.1808 H   0  0  0  0  0  0  0  0  0  0  0  0
  -17.0436  -25.8381  -27.6479 H   0  0  0  0  0  0  0  0  0  0  0  0
  -13.6062  -26.2295  -26.4479 H   0  0  0  0  0  0  0  0  0  0  0  0
  -12.9176  -25.7930  -27.9867 H   0  0  0  0  0  0  0  0  0  0  0  0
  -13.3563  -23.4082  -27.6679 H   0  0  0  0  0  0  0  0  0  0  0  0
  -12.8301  -23.8764  -26.0908 H   0  0  0  0  0  0  0  0  0  0  0  0
  -14.1546  -27.5535  -29.0464 H   0  0  0  0  0  0  0  0  0  0  0  0
  -15.9427  -27.5530  -28.9013 H   0  0  0  0  0  0  0  0  0  0  0  0
  -14.9324  -27.9489  -27.4754 H   0  0  0  0  0  0  0  0  0  0  0  0
  -14.9940  -25.2862  -28.8479 H   0  0  0  0  0  0  0  0  0  0  0  0
  -13.7753  -15.4592  -28.7980 C   0  0  0  0  0  0  0  0  0  0  0  0
  -13.3869  -14.6821  -29.4563 H   0  0  0  0  0  0  0  0  0  0  0  0
  -12.9506  -16.0720  -28.4340 H   0  0  0  0  0  0  0  0  0  0  0  0
  -14.4764  -16.0853  -29.3499 H   0  0  0  0  0  0  0  0  0  0  0  0
  1  2  2  0
  1  3  1  0
  1 45  1  0
  2  4  1  0
  2  5  1  0
  3  6  2  0
  3 26  1  0
  4  7  2  0
  4  8  1  0
  5 11  2  0
  6  7  1  0
  6 18  1  0
  7 27  1  0
  8  9  1  0
  8 10  2  0
  9 11  1  0
  9 28  1  0
 11 12  1  0
 12 13  2  0
 12 17  1  0
 13 14  1  0
 13 29  1  0
 14 15  2  0
 14 30  1  0
 15 16  1  0
 15 19  1  0
 16 17  2  0
 16 31  1  0
 17 32  1  0
 19 20  1  0
 19 24  1  0
 20 21  1  0
 20 33  1  0
 20 34  1  0
 21 22  1  0
 21 35  1  0
 21 36  1  0
 22 23  1  0
 22 25  1  0
 22 44  1  0
 23 24  1  0
 23 37  1  0
 23 38  1  0
 24 39  1  0
 24 40  1  0
 25 41  1  0
 25 42  1  0
 25 43  1  0
 45 46  1  0
 45 47  1  0
 45 48  1  0
M  CHG  1  22   1
M  END
>  <Name>  (24) 
8b

>  <IC50[nM]>  (24) 
1.8

>  <atom.dprop.PartialCharge>  (24) 
-0.022346582 0.18053244 -0.15187797 -0.15504651 -0.61506987 0.12494579 -0.10405546 0.7068941 -0.49620822 -0.6043411 0.5729143 -0.17033337 -0.07302247 -0.12869608 0.11732204 -0.12869608 -0.07302247 -0.1388381 -0.7449143 0.21701331 0.089239165 -0.6870101 0.089239165 0.21701331 0.07727451 0.16219977 0.17999962 0.347752 0.15116876 0.14409219 0.14409219 0.15116876 0.07278573 0.07278573 0.10858182 0.10858182 0.10858182 0.10858182 0.07278573 0.07278573 0.10495345 0.10495345 0.10495345 0.44791096 -0.05000902 0.06079473 0.06079473 0.06079473

>  <experimental dG reference units>  (24) 
nM

>  <experimental dG reference field>  (24) 
IC50[nM]

>  <kJ/mol experimental dG>  (24) 
-50.22500020017594

>  <kcal/mol experimental dG>  (24) 
-12.004063145357538

>  <AmberAM1BCCCache>  (24) 
gASV6wMAAAAAAABdlCiMFm51bXB5Ll9jb3JlLm11bHRpYXJyYXmUjAZzY2FsYXKUk5SMBW51bXB5lIwFZHR5cGWUk5SMAmY4lImIh5RSlChLA4wBPJROTk5K/////0r/////SwB0lGJDCJYbWE5iFta/lIaUUpRoA2gJQwhR31tVBi78P5SGlFKUaANoCUMI1jwlwlfV+b+UhpRSlGgDaAlDCGaRasQ6lvy/lIaUUpRoA2gJQwjEER1V904cwJSGlFKUaANoCUMItkl2Brrv9z+UhpRSlGgDaAlDCIrHRckhTfS/lIaUUpRoA2gJQwgW2MpqgLEgQJSGlFKUaANoCUMIWECLQENjF8CUhpRSlGgDaAlDCFOpMC/jYxzAlIaUUpRoA2gJQwiKJxLerIoYQJSGlFKUaANoCUMIiMkFh0ZO+L+UhpRSlGgDaAlDCDDSyO4it+u/lIaUUpRoA2gJQwiT/tpBB1H8v5SGlFKUaANoCUMIifSbrD4q8z+UhpRSlGgDaAlDCJP+2kEHUfy/lIaUUpRoA2gJQwgw0sjuIrfrv5SGlFKUaANoCUMIudeRjW+997+UhpRSlGgDaAlDCA35zLG+UB7AlIaUUpRoA2gJQwi/+UXXuDX/P5SGlFKUaANoCUMInBiPlL3E8z+UhpRSlGgDaAlDCDizw78UCiDAlIaUUpRoA2gJQwicGI+UvcTzP5SGlFKUaANoCUMIv/lF17g1/z+UhpRSlGgDaAlDCMfQfBnGFu0/lIaUUpRoA2gJQwgRQi1eEl7+P5SGlFKUaANoCUMIHXSw77H5AECUhpRSlGgDaAlDCPX+PfXI2w9AlIaUUpRoA2gJQwhnObu9lbb+P5SGlFKUaANoCUMIlaRrfT1w+j+UhpRSlGgDaAlDCJWka309cPo/lIaUUpRoA2gJQwhnObu9lbb+P5SGlFKUaANoCUMIz+k7Newh7j+UhpRSlGgDaAlDCM/pOzXsIe4/lIaUUpRoA2gJQwjfZUTDbcX0P5SGlFKUaANoCUMI32VEw23F9D+UhpRSlGgDaAlDCN9lRMNtxfQ/lIaUUpRoA2gJQwjfZUTDbcX0P5SGlFKUaANoCUMIz+k7Newh7j+UhpRSlGgDaAlDCM/pOzXsIe4/lIaUUpRoA2gJQwhxVqiBHeDzP5SGlFKUaANoCUMIcVaogR3g8z+UhpRSlGgDaAlDCHFWqIEd4PM/lIaUUpRoA2gJQwjzKye9d00VQJSGlFKUaANoCUMI60sHI6vG4r+UhpRSlGgDaAlDCFu8Z8m1WOQ/lIaUUpRoA2gJQwhbvGfJtVjkP5SGlFKUaANoCUMIW7xnybVY5D+UhpRSlGUu

$$$$
8e
     RDKit          3D

 46 49  0  0  0  0  0  0  0  0999 V2000
  -14.7440  -14.5488  -27.6397 C   0  0  0  0  0  0  0  0  0  0  0  0
  -15.2222  -15.4109  -26.6401 C   0  0  0  0  0  0  0  0  0  0  0  0
  -14.8591  -13.1692  -27.4748 C   0  0  0  0  0  0  0  0  0  0  0  0
  -15.8582  -14.8736  -25.5086 C   0  0  0  0  0  0  0  0  0  0  0  0
  -15.0518  -16.8036  -26.7731 N   0  0  0  0  0  0  0  0  0  0  0  0
  -15.4628  -12.6413  -26.3347 C   0  0  0  0  0  0  0  0  0  0  0  0
  -15.9779  -13.4879  -25.3505 C   0  0  0  0  0  0  0  0  0  0  0  0
  -16.4074  -15.8323  -24.4721 C   0  0  0  0  0  0  0  0  0  0  0  0
  -16.1816  -17.1328  -24.8095 N   0  0  0  0  0  0  0  0  0  0  0  0
  -17.0140  -15.5193  -23.4454 O   0  0  0  0  0  0  0  0  0  0  0  0
  -15.4957  -17.6480  -25.8989 C   0  0  0  0  0  0  0  0  0  0  0  0
  -15.3321  -19.1204  -26.0396 C   0  0  0  0  0  0  0  0  0  0  0  0
  -15.8398  -19.9770  -25.0510 C   0  0  0  0  0  0  0  0  0  0  0  0
  -15.6725  -21.3559  -25.1428 C   0  0  0  0  0  0  0  0  0  0  0  0
  -15.0037  -21.9226  -26.2340 C   0  0  0  0  0  0  0  0  0  0  0  0
  -14.5169  -21.0751  -27.2353 C   0  0  0  0  0  0  0  0  0  0  0  0
  -14.6698  -19.6915  -27.1368 C   0  0  0  0  0  0  0  0  0  0  0  0
  -14.1579  -15.0195  -28.7614 F   0  0  0  0  0  0  0  0  0  0  0  0
  -15.5478  -11.2992  -26.1973 F   0  0  0  0  0  0  0  0  0  0  0  0
  -14.7101  -23.4149  -26.2936 C   0  0  1  0  0  0  0  0  0  0  0  0
  -15.9534  -24.1911  -26.7469 C   0  0  0  0  0  0  0  0  0  0  0  0
  -15.6342  -25.6857  -26.9262 C   0  0  0  0  0  0  0  0  0  0  0  0
  -14.5516  -25.8523  -27.9018 N   0  0  1  0  0  0  0  0  0  0  0  0
  -13.3243  -25.2116  -27.4171 C   0  0  0  0  0  0  0  0  0  0  0  0
  -13.5505  -23.6979  -27.2575 C   0  0  0  0  0  0  0  0  0  0  0  0
  -14.2997  -27.2875  -28.1026 C   0  0  0  0  0  0  0  0  0  0  0  0
  -14.4707  -12.5054  -28.2336 H   0  0  0  0  0  0  0  0  0  0  0  0
  -16.4556  -13.0654  -24.4762 H   0  0  0  0  0  0  0  0  0  0  0  0
  -16.6413  -17.7854  -24.1871 H   0  0  0  0  0  0  0  0  0  0  0  0
  -16.3480  -19.5775  -24.1847 H   0  0  0  0  0  0  0  0  0  0  0  0
  -16.0409  -21.9665  -24.3328 H   0  0  0  0  0  0  0  0  0  0  0  0
  -13.9848  -21.4818  -28.0842 H   0  0  0  0  0  0  0  0  0  0  0  0
  -14.2604  -19.0777  -27.9262 H   0  0  0  0  0  0  0  0  0  0  0  0
  -14.4329  -23.7212  -25.2849 H   0  0  0  0  0  0  0  0  0  0  0  0
  -16.7537  -24.0684  -26.0171 H   0  0  0  0  0  0  0  0  0  0  0  0
  -16.3288  -23.7780  -27.6831 H   0  0  0  0  0  0  0  0  0  0  0  0
  -16.5279  -26.2064  -27.2702 H   0  0  0  0  0  0  0  0  0  0  0  0
  -15.3598  -26.1293  -25.9692 H   0  0  0  0  0  0  0  0  0  0  0  0
  -12.5120  -25.3822  -28.1236 H   0  0  0  0  0  0  0  0  0  0  0  0
  -13.0131  -25.6477  -26.4678 H   0  0  0  0  0  0  0  0  0  0  0  0
  -12.6398  -23.2241  -26.8912 H   0  0  0  0  0  0  0  0  0  0  0  0
  -13.7573  -23.2503  -28.2296 H   0  0  0  0  0  0  0  0  0  0  0  0
  -15.2336  -27.7482  -28.4257 H   0  0  0  0  0  0  0  0  0  0  0  0
  -13.9580  -27.7278  -27.1672 H   0  0  0  0  0  0  0  0  0  0  0  0
  -13.5429  -27.3868  -28.8818 H   0  0  0  0  0  0  0  0  0  0  0  0
  -14.8253  -25.4208  -28.7730 H   0  0  0  0  0  0  0  0  0  0  0  0
  1  2  2  0
  1  3  1  0
  1 18  1  0
  2  4  1  0
  2  5  1  0
  3  6  2  0
  3 27  1  0
  4  7  2  0
  4  8  1  0
  5 11  2  0
  6  7  1  0
  6 19  1  0
  7 28  1  0
  8  9  1  0
  8 10  2  0
  9 11  1  0
  9 29  1  0
 11 12  1  0
 12 13  2  0
 12 17  1  0
 13 14  1  0
 13 30  1  0
 14 15  2  0
 14 31  1  0
 15 16  1  0
 15 20  1  0
 16 17  2  0
 16 32  1  0
 17 33  1  0
 20 21  1  0
 20 25  1  0
 20 34  1  1
 21 22  1  0
 21 35  1  0
 21 36  1  0
 22 23  1  0
 22 37  1  0
 22 38  1  0
 23 24  1  0
 23 26  1  0
 23 46  1  6
 24 25  1  0
 24 39  1  0
 24 40  1  0
 25 41  1  0
 25 42  1  0
 26 43  1  0
 26 44  1  0
 26 45  1  0
M  CHG  1  23   1
M  END
>  <Name>  (25) 
8e

>  <IC50[nM]>  (25) 
31

>  <atom.dprop.PartialCharge>  (25) 
0.16905953 0.17084469 -0.17995976 -0.14482763 -0.5997377 0.13899621 -0.10594118 0.7076688 -0.49270242 -0.60180914 0.57017297 -0.15450706 -0.076568 -0.12580486 -0.09207846 -0.12580486 -0.076568 -0.120000914 -0.13081188 -0.023686044 -0.09737505 0.109240785 -0.68564683 0.109240785 -0.09737505 0.082262784 0.17691979 0.18443258 0.3482674 0.14811045 0.13135365 0.13135365 0.14811045 0.0823061 0.08590031 0.08590031 0.10344158 0.10344158 0.10344158 0.10344158 0.08590031 0.08590031 0.10509406 0.10509406 0.10509406 0.4502143

>  <experimental dG reference units>  (25) 
nM

>  <experimental dG reference field>  (25) 
IC50[nM]

>  <kJ/mol experimental dG>  (25) 
-43.12557031083077

>  <kcal/mol experimental dG>  (25) 
-10.307258678496837

>  <AmberAM1BCCCache>  (25) 
gASVxQMAAAAAAABdlCiMFm51bXB5Ll9jb3JlLm11bHRpYXJyYXmUjAZzY2FsYXKUk5SMBW51bXB5lIwFZHR5cGWUk5SMAmY4lImIh5RSlChLA4wBPJROTk5K/////0r/////SwB0lGJDCFmWwOxSTgBAlIaUUpRoA2gJQwgiM6DSHCX2P5SGlFKUaANoCUMIO1+eGGPIAMCUhpRSlGgDaAlDCEglawdtYfm/lIaUUpRoA2gJQwg5McN/F7obwJSGlFKUaANoCUMILp7hDe4V/D+UhpRSlGgDaAlDCFzoubojr/W/lIaUUpRoA2gJQwg90FPneKsgQJSGlFKUaANoCUMIMFPRgSJPF8CUhpRSlGgDaAlDCBTC291oExzAlIaUUpRoA2gJQwhMFIGV06IYQJSGlFKUaANoCUMIDEHuvCY79r+UhpRSlGgDaAlDCOP1bKfsrO+/lIaUUpRoA2gJQwj7sUvMW9r3v5SGlFKUaANoCUMIlA1FH04o8r+UhpRSlGgDaAlDCPuxS8xb2ve/lIaUUpRoA2gJQwjj9Wyn7Kzvv5SGlFKUaANoCUMIsFiCcsBJ9b+UhpRSlGgDaAlDCAxB7rwmO/a/lIaUUpRoA2gJQwgZ4hDCKDjKv5SGlFKUaANoCUMInIXosRd/87+UhpRSlGgDaAlDCKax9JDiLvU/lIaUUpRoA2gJQwgRuzpDHBAgwJSGlFKUaANoCUMIprH0kOIu9T+UhpRSlGgDaAlDCJyF6LEXf/O/lIaUUpRoA2gJQwiAGtzHqfnuP5SGlFKUaANoCUMIdFlYOUyxAECUhpRSlGgDaAlDCIpGSNtqcgFAlIaUUpRoA2gJQwh063cjFw4QQJSGlFKUaANoCUMIefeqZ4mm/j+UhpRSlGgDaAlDCIJ5Wc7Wdvk/lIaUUpRoA2gJQwiCeVnO1nb5P5SGlFKUaANoCUMIefeqZ4mm/j+UhpRSlGgDaAlDCLb7b1z2COg/lIaUUpRoA2gJQwh1ecebUUzxP5SGlFKUaANoCUMIdXnHm1FM8T+UhpRSlGgDaAlDCM5H3QRCR/M/lIaUUpRoA2gJQwjOR90EQkfzP5SGlFKUaANoCUMIzkfdBEJH8z+UhpRSlGgDaAlDCM5H3QRCR/M/lIaUUpRoA2gJQwh1ecebUUzxP5SGlFKUaANoCUMIdXnHm1FM8T+UhpRSlGgDaAlDCExgNu4I0PM/lIaUUpRoA2gJQwhMYDbuCNDzP5SGlFKUaANoCUMITGA27gjQ8z+UhpRSlGgDaAlDCKAe++FEKRVAlIaUUpRlLg==

$$$$
8f
     RDKit          3D

 49 52  0  0  0  0  0  0  0  0999 V2000
  -14.4976  -14.8078  -27.6041 C   0  0  0  0  0  0  0  0  0  0  0  0
  -15.0860  -15.6146  -26.6121 C   0  0  0  0  0  0  0  0  0  0  0  0
  -14.5776  -13.4189  -27.4910 C   0  0  0  0  0  0  0  0  0  0  0  0
  -15.7974  -15.0175  -25.5617 C   0  0  0  0  0  0  0  0  0  0  0  0
  -14.9497  -17.0161  -26.6693 N   0  0  0  0  0  0  0  0  0  0  0  0
  -15.2599  -12.8300  -26.4299 C   0  0  0  0  0  0  0  0  0  0  0  0
  -15.8868  -13.6238  -25.4651 C   0  0  0  0  0  0  0  0  0  0  0  0
  -16.4709  -15.9214  -24.5493 C   0  0  0  0  0  0  0  0  0  0  0  0
  -16.1516  -17.2326  -24.7414 N   0  0  0  0  0  0  0  0  0  0  0  0
  -17.2464  -15.5613  -23.6634 O   0  0  0  0  0  0  0  0  0  0  0  0
  -15.4317  -17.8110  -25.7710 C   0  0  0  0  0  0  0  0  0  0  0  0
  -15.2745  -19.2883  -25.8445 C   0  0  0  0  0  0  0  0  0  0  0  0
  -14.7650  -19.8714  -27.0158 C   0  0  0  0  0  0  0  0  0  0  0  0
  -14.6263  -21.2503  -27.1285 C   0  0  0  0  0  0  0  0  0  0  0  0
  -14.9818  -22.0879  -26.0683 C   0  0  0  0  0  0  0  0  0  0  0  0
  -15.4738  -21.5135  -24.8915 C   0  0  0  0  0  0  0  0  0  0  0  0
  -15.6247  -20.1316  -24.7809 C   0  0  0  0  0  0  0  0  0  0  0  0
  -13.7514  -15.3866  -28.7929 C   0  0  0  0  0  0  0  0  0  0  0  0
  -15.3111  -11.4823  -26.3542 F   0  0  0  0  0  0  0  0  0  0  0  0
  -14.9368  -23.6188  -26.2176 C   0  0  1  0  0  0  0  0  0  0  0  0
  -16.1502  -24.1096  -27.0129 C   0  0  0  0  0  0  0  0  0  0  0  0
  -16.1516  -25.6356  -27.1525 C   0  0  0  0  0  0  0  0  0  0  0  0
  -14.9512  -26.0113  -28.0249 N   0  0  1  0  0  0  0  0  0  0  0  0
  -13.6603  -25.6760  -27.2735 C   0  0  0  0  0  0  0  0  0  0  0  0
  -13.6303  -24.1771  -26.8303 C   0  0  0  0  0  0  0  0  0  0  0  0
  -14.9970  -27.5130  -28.4020 C   0  0  0  0  0  0  0  0  0  0  0  0
  -14.1111  -12.7839  -28.2306 H   0  0  0  0  0  0  0  0  0  0  0  0
  -16.4256  -13.1525  -24.6535 H   0  0  0  0  0  0  0  0  0  0  0  0
  -16.6444  -17.8520  -24.1113 H   0  0  0  0  0  0  0  0  0  0  0  0
  -14.4912  -19.2630  -27.8667 H   0  0  0  0  0  0  0  0  0  0  0  0
  -14.2683  -21.6534  -28.0631 H   0  0  0  0  0  0  0  0  0  0  0  0
  -15.7622  -22.1415  -24.0621 H   0  0  0  0  0  0  0  0  0  0  0  0
  -16.0195  -19.7338  -23.8570 H   0  0  0  0  0  0  0  0  0  0  0  0
  -14.1621  -16.3516  -29.0752 H   0  0  0  0  0  0  0  0  0  0  0  0
  -12.6990  -15.5158  -28.5462 H   0  0  0  0  0  0  0  0  0  0  0  0
  -13.8228  -14.7393  -29.6666 H   0  0  0  0  0  0  0  0  0  0  0  0
  -15.0135  -24.0196  -25.2058 H   0  0  0  0  0  0  0  0  0  0  0  0
  -16.1698  -23.6636  -28.0062 H   0  0  0  0  0  0  0  0  0  0  0  0
  -17.0502  -23.7611  -26.5261 H   0  0  0  0  0  0  0  0  0  0  0  0
  -16.0823  -26.1523  -26.1962 H   0  0  0  0  0  0  0  0  0  0  0  0
  -17.0390  -25.9961  -27.6633 H   0  0  0  0  0  0  0  0  0  0  0  0
  -13.6015  -26.3876  -26.4633 H   0  0  0  0  0  0  0  0  0  0  0  0
  -12.9129  -25.9511  -28.0021 H   0  0  0  0  0  0  0  0  0  0  0  0
  -13.3516  -23.5663  -27.6833 H   0  0  0  0  0  0  0  0  0  0  0  0
  -12.8254  -24.0344  -26.1062 H   0  0  0  0  0  0  0  0  0  0  0  0
  -14.1499  -27.7115  -29.0618 H   0  0  0  0  0  0  0  0  0  0  0  0
  -15.9380  -27.7110  -28.9167 H   0  0  0  0  0  0  0  0  0  0  0  0
  -14.9278  -28.1070  -27.4908 H   0  0  0  0  0  0  0  0  0  0  0  0
  -14.9894  -25.4443  -28.8633 H   0  0  0  0  0  0  0  0  0  0  0  0
  1  2  2  0
  1  3  1  0
  1 18  1  0
  2  4  1  0
  2  5  1  0
  3  6  2  0
  3 27  1  0
  4  7  2  0
  4  8  1  0
  5 11  2  0
  6  7  1  0
  6 19  1  0
  7 28  1  0
  8  9  1  0
  8 10  2  0
  9 11  1  0
  9 29  1  0
 11 12  1  0
 12 13  2  0
 12 17  1  0
 13 14  1  0
 13 30  1  0
 14 15  2  0
 14 31  1  0
 15 16  1  0
 15 20  1  0
 16 17  2  0
 16 32  1  0
 17 33  1  0
 18 34  1  0
 18 35  1  0
 18 36  1  0
 20 21  1  0
 20 25  1  0
 20 37  1  1
 21 22  1  0
 21 38  1  0
 21 39  1  0
 22 23  1  0
 22 40  1  0
 22 41  1  0
 23 24  1  0
 23 26  1  0
 23 49  1  6
 24 25  1  0
 24 42  1  0
 24 43  1  0
 25 44  1  0
 25 45  1  0
 26 46  1  0
 26 47  1  0
 26 48  1  0
M  CHG  1  23   1
M  END
>  <Name>  (26) 
8f

>  <IC50[nM]>  (26) 
2.2000000000000002

>  <atom.dprop.PartialCharge>  (26) 
-0.022288885 0.18059012 -0.15182027 -0.15498881 -0.613203 0.12500349 -0.10399777 0.7069518 -0.49466673 -0.6042834 0.56305724 -0.15806147 -0.075735 -0.12661393 -0.09288749 -0.12661393 -0.075735 -0.049951322 -0.13878039 -0.024495073 -0.098184094 0.10843178 -0.68645626 0.10843178 -0.098184094 0.08145376 0.16225746 0.18005732 0.3478097 0.14730135 0.13054463 0.13054463 0.14730135 0.060852423 0.060852423 0.060852423 0.08149703 0.08509123 0.08509123 0.10263255 0.10263255 0.10263255 0.10263255 0.08509123 0.08509123 0.10428505 0.10428505 0.10428505 0.44940522

>  <experimental dG reference units>  (26) 
nM

>  <experimental dG reference field>  (26) 
IC50[nM]

>  <kJ/mol experimental dG>  (26) 
-49.724456575977065

>  <kcal/mol experimental dG>  (26) 
-11.88443034798687

>  <AmberAM1BCCCache>  (26) 
gASV/gMAAAAAAABdlCiMFm51bXB5Ll9jb3JlLm11bHRpYXJyYXmUjAZzY2FsYXKUk5SMBW51bXB5lIwFZHR5cGWUk5SMAmY4lImIh5RSlChLA4wBPJROTk5K/////0r/////SwB0lGJDCOBZNd5WHta/lIaUUpRoA2gJQwh4lOiIwfv7P5SGlFKUaANoCUMIaYwc5lTX+b+UhpRSlGgDaAlDCLTl5T/wZ/y/lIaUUpRoA2gJQwg950a7Xj8cwJSGlFKUaANoCUMII/p+4rzt9z+UhpRSlGgDaAlDCIgVEdA2X/S/lIaUUpRoA2gJQwgj7kvGQLEgQJSGlFKUaANoCUMIBxUfmLZbF8CUhpRSlGgDaAlDCAF+xIZWXBzAlIaUUpRoA2gJQwgCVtbACXIYQJSGlFKUaANoCUMITls1dFis9b+UhpRSlGgDaAlDCDJ7pykyUfC/lIaUUpRoA2gJQwhswMioQMT3v5SGlFKUaANoCUMIMxD4IOaK8r+UhpRSlGgDaAlDCGzAyKhAxPe/lIaUUpRoA2gJQwgye6cpMlHwv5SGlFKUaANoCUMIEev1aqXK4r+UhpRSlGgDaAlDCAUsDQklj/e/lIaUUpRoA2gJQwi0QulHbkjKv5SGlFKUaANoCUMIDZRljvxo87+UhpRSlGgDaAlDCJKlOeDZLPU/lIaUUpRoA2gJQwiTHFJZXRAgwJSGlFKUaANoCUMIkqU54Nks9T+UhpRSlGgDaAlDCA2UZY78aPO/lIaUUpRoA2gJQwjPC24VCZXuP5SGlFKUaANoCUMIfvI1OhVc/j+UhpRSlGgDaAlDCFPMtF2z+ABAlIaUUpRoA2gJQwj0V9hxvtIPQJSGlFKUaANoCUMIIPBzDjl0/j+UhpRSlGgDaAlDCMxvYEmqXPk/lIaUUpRoA2gJQwjMb2BJqlz5P5SGlFKUaANoCUMIIPBzDjl0/j+UhpRSlGgDaAlDCMCKkFlzX+Q/lIaUUpRoA2gJQwjAipBZc1/kP5SGlFKUaANoCUMIwIqQWXNf5D+UhpRSlGgDaAlDCATtAapVpOc/lIaUUpRoA2gJQwi/b84WJTLxP5SGlFKUaANoCUMIv2/OFiUy8T+UhpRSlGgDaAlDCOo8A2onOfM/lIaUUpRoA2gJQwjqPANqJznzP5SGlFKUaANoCUMI6jwDaic58z+UhpRSlGgDaAlDCOo8A2onOfM/lIaUUpRoA2gJQwi/b84WJTLxP5SGlFKUaANoCUMIv2/OFiUy8T+UhpRSlGgDaAlDCDlUez0AzvM/lIaUUpRoA2gJQwg5VHs9AM7zP5SGlFKUaANoCUMIOVR7PQDO8z+UhpRSlGgDaAlDCJpbzLXCKBVAlIaUUpRlLg==

$$$$
8a
     RDKit          3D

 45 48  0  0  0  0  0  0  0  0999 V2000
  -14.4976  -14.8078  -27.6041 C   0  0  0  0  0  0  0  0  0  0  0  0
  -15.0860  -15.6146  -26.6121 C   0  0  0  0  0  0  0  0  0  0  0  0
  -14.5776  -13.4189  -27.4910 C   0  0  0  0  0  0  0  0  0  0  0  0
  -15.7974  -15.0175  -25.5617 C   0  0  0  0  0  0  0  0  0  0  0  0
  -14.9497  -17.0161  -26.6693 N   0  0  0  0  0  0  0  0  0  0  0  0
  -15.2599  -12.8300  -26.4299 C   0  0  0  0  0  0  0  0  0  0  0  0
  -15.8868  -13.6238  -25.4651 C   0  0  0  0  0  0  0  0  0  0  0  0
  -16.4709  -15.9214  -24.5493 C   0  0  0  0  0  0  0  0  0  0  0  0
  -16.1516  -17.2326  -24.7414 N   0  0  0  0  0  0  0  0  0  0  0  0
  -17.2464  -15.5613  -23.6634 O   0  0  0  0  0  0  0  0  0  0  0  0
  -15.4317  -17.8110  -25.7710 C   0  0  0  0  0  0  0  0  0  0  0  0
  -15.2745  -19.2883  -25.8445 C   0  0  0  0  0  0  0  0  0  0  0  0
  -14.7650  -19.8714  -27.0158 C   0  0  0  0  0  0  0  0  0  0  0  0
  -14.6263  -21.2503  -27.1285 C   0  0  0  0  0  0  0  0  0  0  0  0
  -14.9818  -22.0879  -26.0683 C   0  0  0  0  0  0  0  0  0  0  0  0
  -15.4738  -21.5135  -24.8915 C   0  0  0  0  0  0  0  0  0  0  0  0
  -15.6247  -20.1316  -24.7809 C   0  0  0  0  0  0  0  0  0  0  0  0
  -15.3111  -11.4823  -26.3542 F   0  0  0  0  0  0  0  0  0  0  0  0
  -14.9414  -23.4608  -26.2022 N   0  0  0  0  0  0  0  0  0  0  0  0
  -16.1549  -23.9516  -26.9975 C   0  0  0  0  0  0  0  0  0  0  0  0
  -16.1562  -25.4776  -27.1371 C   0  0  0  0  0  0  0  0  0  0  0  0
  -14.9559  -25.8533  -28.0095 N   0  0  0  0  0  0  0  0  0  0  0  0
  -13.6649  -25.5179  -27.2581 C   0  0  0  0  0  0  0  0  0  0  0  0
  -13.6349  -24.0190  -26.8149 C   0  0  0  0  0  0  0  0  0  0  0  0
  -15.0017  -27.3550  -28.3866 C   0  0  0  0  0  0  0  0  0  0  0  0
  -14.1111  -12.7839  -28.2306 H   0  0  0  0  0  0  0  0  0  0  0  0
  -16.4256  -13.1525  -24.6535 H   0  0  0  0  0  0  0  0  0  0  0  0
  -16.6444  -17.8520  -24.1113 H   0  0  0  0  0  0  0  0  0  0  0  0
  -14.4912  -19.2630  -27.8667 H   0  0  0  0  0  0  0  0  0  0  0  0
  -14.2683  -21.6534  -28.0631 H   0  0  0  0  0  0  0  0  0  0  0  0
  -15.7622  -22.1415  -24.0621 H   0  0  0  0  0  0  0  0  0  0  0  0
  -16.0195  -19.7338  -23.8570 H   0  0  0  0  0  0  0  0  0  0  0  0
  -16.1744  -23.5056  -27.9908 H   0  0  0  0  0  0  0  0  0  0  0  0
  -17.0548  -23.6031  -26.5107 H   0  0  0  0  0  0  0  0  0  0  0  0
  -16.0869  -25.9943  -26.1808 H   0  0  0  0  0  0  0  0  0  0  0  0
  -17.0436  -25.8381  -27.6479 H   0  0  0  0  0  0  0  0  0  0  0  0
  -13.6062  -26.2295  -26.4479 H   0  0  0  0  0  0  0  0  0  0  0  0
  -12.9176  -25.7930  -27.9867 H   0  0  0  0  0  0  0  0  0  0  0  0
  -13.3563  -23.4082  -27.6679 H   0  0  0  0  0  0  0  0  0  0  0  0
  -12.8301  -23.8764  -26.0908 H   0  0  0  0  0  0  0  0  0  0  0  0
  -14.1546  -27.5535  -29.0464 H   0  0  0  0  0  0  0  0  0  0  0  0
  -15.9427  -27.5530  -28.9013 H   0  0  0  0  0  0  0  0  0  0  0  0
  -14.9324  -27.9489  -27.4754 H   0  0  0  0  0  0  0  0  0  0  0  0
  -14.9940  -25.2862  -28.8479 H   0  0  0  0  0  0  0  0  0  0  0  0
  -13.9911  -15.2646  -28.4414 H   0  0  0  0  0  0  0  0  0  0  0  0
  1  2  2  0
  1  3  1  0
  1 45  1  0
  2  4  1  0
  2  5  1  0
  3  6  2  0
  3 26  1  0
  4  7  2  0
  4  8  1  0
  5 11  2  0
  6  7  1  0
  6 18  1  0
  7 27  1  0
  8  9  1  0
  8 10  2  0
  9 11  1  0
  9 28  1  0
 11 12  1  0
 12 13  2  0
 12 17  1  0
 13 14  1  0
 13 29  1  0
 14 15  2  0
 14 30  1  0
 15 16  1  0
 15 19  1  0
 16 17  2  0
 16 31  1  0
 17 32  1  0
 19 20  1  0
 19 24  1  0
 20 21  1  0
 20 33  1  0
 20 34  1  0
 21 22  1  0
 21 35  1  0
 21 36  1  0
 22 23  1  0
 22 25  1  0
 22 44  1  0
 23 24  1  0
 23 37  1  0
 23 38  1  0
 24 39  1  0
 24 40  1  0
 25 41  1  0
 25 42  1  0
 25 43  1  0
M  CHG  1  22   1
M  END
>  <Name>  (27) 
8a

>  <IC50[nM]>  (27) 
12

>  <atom.dprop.PartialCharge>  (27) 
-0.09811675 0.18916325 -0.1260021 -0.15594348 -0.6120361 0.11430122 -0.09787519 0.7082223 -0.49561206 -0.60721576 0.5768494 -0.16939771 -0.0745571 -0.12816331 0.11785475 -0.12816331 -0.0745571 -0.13466421 -0.7443813 0.217546 0.089771874 -0.6864771 0.089771874 0.217546 0.07780723 0.15769887 0.18029079 0.34772283 0.15170154 0.14462495 0.14462495 0.15170154 0.07331849 0.07331849 0.10911455 0.10911455 0.10911455 0.10911455 0.07331849 0.07331849 0.10548616 0.10548616 0.10548616 0.44844374 0.16132925

>  <experimental dG reference units>  (27) 
nM

>  <experimental dG reference field>  (27) 
IC50[nM]

>  <kJ/mol experimental dG>  (27) 
-45.49291258475232

>  <kcal/mol experimental dG>  (27) 
-10.873067061365276

>  <AmberAM1BCCCache>  (27) 
gASVsgMAAAAAAABdlCiMFm51bXB5Ll9jb3JlLm11bHRpYXJyYXmUjAZzY2FsYXKUk5SMBW51bXB5lIwFZHR5cGWUk5SMAmY4lImIh5RSlChLA4wBPJROTk5K/////0r/////SwB0lGJDCD5gYip5KfG/lIaUUpRoA2gJQwiBgsdII+78P5SGlFKUaANoCUMIkKzJLBxU+L+UhpRSlGgDaAlDCKfDWr2iiP2/lIaUUpRoA2gJQwhzIyiyQ1ccwJSGlFKUaANoCUMILhwKZQrN9j+UhpRSlGgDaAlDCPUwOr9FDPO/lIaUUpRoA2gJQwjZTvo0YLEgQJSGlFKUaANoCUMIbVLhpIlnF8CUhpRSlGgDaAlDCMO9SL8FUBzAlIaUUpRoA2gJQwiFEc4woq4YQJSGlFKUaANoCUMItA4G3o9/+L+UhpRSlGgDaAlDCHBv2fqWWOu/lIaUUpRoA2gJQwiIRHGnRHr8v5SGlFKUaANoCUMI6qWTpoRZ8z+UhpRSlGgDaAlDCIhEcadEevy/lIaUUpRoA2gJQwhwb9n6lljrv5SGlFKUaANoCUMIWCaakymO97+UhpRSlGgDaAlDCIYLbh3/UB7AlIaUUpRoA2gJQwhFrpULz0T/P5SGlFKUaANoCUMIts4K5rvD8z+UhpRSlGgDaAlDCHQ8lPU0CiDAlIaUUpRoA2gJQwi2zgrmu8PzP5SGlFKUaANoCUMIRa6VC89E/z+UhpRSlGgDaAlDCPw8dLzCFO0/lIaUUpRoA2gJQwgq+KivEF3+P5SGlFKUaANoCUMIKU9uGDH5AECUhpRSlGgDaAlDCMvakSw80w9AlIaUUpRoA2gJQwi17qAAoL3+P5SGlFKUaANoCUMIu1b5hXeX+j+UhpRSlGgDaAlDCLtW+YV3l/o/lIaUUpRoA2gJQwi17qAAoL3+P5SGlFKUaANoCUMIOlWdyfQn7j+UhpRSlGgDaAlDCDpVncn0J+4/lIaUUpRoA2gJQwiUG3UNcsj0P5SGlFKUaANoCUMIlBt1DXLI9D+UhpRSlGgDaAlDCJQbdQ1yyPQ/lIaUUpRoA2gJQwiUG3UNcsj0P5SGlFKUaANoCUMIOlWdyfQn7j+UhpRSlGgDaAlDCDpVncn0J+4/lIaUUpRoA2gJQwiLDCTTG9/zP5SGlFKUaANoCUMIiwwk0xvf8z+UhpRSlGgDaAlDCIsMJNMb3/M/lIaUUpRoA2gJQwh6GYZRN00VQJSGlFKUaANoCUMInwGxXoH8/T+UhpRSlGUu

$$$$
