CHEMBL3402753_200
     RDKit          3D

 46 49  0  0  0  0  0  0  0  0999 V2000
   24.6440   33.7566   50.5299 C   0  0  0  0  0  0  0  0  0  0  0  0
   24.1955   33.6079   51.9712 C   0  0  0  0  0  0  0  0  0  0  0  0
   22.9269   33.1279   52.2874 C   0  0  0  0  0  0  0  0  0  0  0  0
   22.5559   32.9819   53.6250 C   0  0  0  0  0  0  0  0  0  0  0  0
   23.4682   33.3170   54.6402 C   0  0  0  0  0  0  0  0  0  0  0  0
   24.7033   33.8055   54.3290 N   0  0  0  0  0  0  0  0  0  0  0  0
   25.0501   33.9349   53.0237 C   0  0  0  0  0  0  0  0  0  0  0  0
   23.1953   33.0558   56.0977 C   0  0  0  0  0  0  0  0  0  0  0  0
   24.2278   33.1076   57.0532 C   0  0  0  0  0  0  0  0  0  0  0  0
   24.0151   32.7150   58.3740 C   0  0  0  0  0  0  0  0  0  0  0  0
   22.7600   32.2678   58.7755 C   0  0  0  0  0  0  0  0  0  0  0  0
   21.7005   32.2521   57.8672 C   0  0  0  0  0  0  0  0  0  0  0  0
   20.3107   31.8110   58.3229 C   0  0  0  0  0  0  0  0  0  0  0  0
   19.9717   30.4315   57.9305 N   0  0  0  0  0  0  0  0  0  0  0  0
   19.4379   30.2705   56.6488 N   0  0  0  0  0  0  0  0  0  0  0  0
   19.0713   29.1173   56.1871 C   0  0  0  0  0  0  0  0  0  0  0  0
   19.3100   27.9722   57.0534 C   0  0  0  0  0  0  0  0  0  0  0  0
   19.8477   28.1160   58.2858 C   0  0  0  0  0  0  0  0  0  0  0  0
   20.2087   29.4111   58.8309 C   0  0  0  0  0  0  0  0  0  0  0  0
   20.6466   29.5360   59.9757 O   0  0  0  0  0  0  0  0  0  0  0  0
   18.4362   28.9570   54.8556 C   0  0  0  0  0  0  0  0  0  0  0  0
   17.9522   30.0911   54.1748 C   0  0  0  0  0  0  0  0  0  0  0  0
   17.2982   29.9692   52.9506 C   0  0  0  0  0  0  0  0  0  0  0  0
   16.8364   31.0762   52.3231 F   0  0  0  0  0  0  0  0  0  0  0  0
   17.1097   28.7125   52.3844 C   0  0  0  0  0  0  0  0  0  0  0  0
   17.5833   27.5775   53.0396 C   0  0  0  0  0  0  0  0  0  0  0  0
   17.3892   26.3557   52.4989 F   0  0  0  0  0  0  0  0  0  0  0  0
   18.2471   27.6988   54.2596 C   0  0  0  0  0  0  0  0  0  0  0  0
   21.9191   32.6673   56.5497 C   0  0  0  0  0  0  0  0  0  0  0  0
   25.1758   32.8594   50.2079 H   0  0  0  0  0  0  0  0  0  0  0  0
   25.3161   34.6083   50.4144 H   0  0  0  0  0  0  0  0  0  0  0  0
   23.7921   33.9111   49.8659 H   0  0  0  0  0  0  0  0  0  0  0  0
   22.2301   32.8651   51.5047 H   0  0  0  0  0  0  0  0  0  0  0  0
   21.5777   32.5756   53.8360 H   0  0  0  0  0  0  0  0  0  0  0  0
   26.0426   34.3121   52.8220 H   0  0  0  0  0  0  0  0  0  0  0  0
   25.2268   33.4061   56.7732 H   0  0  0  0  0  0  0  0  0  0  0  0
   24.8331   32.7337   59.0783 H   0  0  0  0  0  0  0  0  0  0  0  0
   22.6120   31.9260   59.7898 H   0  0  0  0  0  0  0  0  0  0  0  0
   20.2103   31.9631   59.4002 H   0  0  0  0  0  0  0  0  0  0  0  0
   19.5697   32.4933   57.8958 H   0  0  0  0  0  0  0  0  0  0  0  0
   19.0659   26.9644   56.7514 H   0  0  0  0  0  0  0  0  0  0  0  0
   20.0179   27.2423   58.8982 H   0  0  0  0  0  0  0  0  0  0  0  0
   18.0622   31.0791   54.5954 H   0  0  0  0  0  0  0  0  0  0  0  0
   16.5959   28.6119   51.4403 H   0  0  0  0  0  0  0  0  0  0  0  0
   18.5991   26.7871   54.7204 H   0  0  0  0  0  0  0  0  0  0  0  0
   21.0819   32.6371   55.8707 H   0  0  0  0  0  0  0  0  0  0  0  0
  1  2  1  0
  1 30  1  0
  1 31  1  0
  1 32  1  0
  2  3  2  0
  2  7  1  0
  3  4  1  0
  3 33  1  0
  4  5  2  0
  4 34  1  0
  5  6  1  0
  5  8  1  0
  6  7  2  0
  7 35  1  0
  8  9  2  0
  8 29  1  0
  9 10  1  0
  9 36  1  0
 10 11  2  0
 10 37  1  0
 11 12  1  0
 11 38  1  0
 12 13  1  0
 12 29  2  0
 13 14  1  0
 13 39  1  0
 13 40  1  0
 14 15  1  0
 14 19  1  0
 15 16  2  0
 16 17  1  0
 16 21  1  0
 17 18  2  0
 17 41  1  0
 18 19  1  0
 18 42  1  0
 19 20  2  0
 21 22  2  0
 21 28  1  0
 22 23  1  0
 22 43  1  0
 23 24  1  0
 23 25  2  0
 25 26  1  0
 25 44  1  0
 26 27  1  0
 26 28  2  0
 28 45  1  0
 29 46  1  0
M  END
>  <s_user_Name>  (1) 
CHEMBL3402753_200

>  <IC50[nM]>  (1) 
200

>  <atom.dprop.PartialCharge>  (1) 
-0.053509492 -0.18854427 -0.10485825 -0.16512918 0.38583505 -0.650664 0.41170773 -0.14028856 -0.10592255 -0.13137946 -0.099107206 -0.10319941 0.1438213 -0.1781354 -0.37637088 0.35564026 -0.14354831 -0.2193941 0.652712 -0.61567247 -0.07934354 -0.16567847 0.15959585 -0.13618274 -0.19602479 0.15959585 -0.13618274 -0.16567847 -0.094669916 0.047963638 0.047963638 0.047963638 0.13938312 0.15131159 0.022969702 0.13801444 0.13664624 0.14375101 0.08254254 0.08254254 0.15757439 0.16455483 0.15627167 0.16639823 0.15627167 0.13845287

>  <experimental dG reference units>  (1) 
nM

>  <experimental dG reference field>  (1) 
IC50[nM]

>  <kJ/mol experimental dG>  (1) 
-38.475272100257015

>  <kcal/mol experimental dG>  (1) 
-9.19581073141898

$$$$
CHEMBL3402759_5.7
     RDKit          3D

 65 68  0  0  0  0  0  0  0  0999 V2000
   15.8252   31.3725   51.3891 C   0  0  0  0  0  0  0  0  0  0  0  0
   16.6336   31.3985   52.5609 O   0  0  0  0  0  0  0  0  0  0  0  0
   17.1600   30.2110   53.0332 C   0  0  0  0  0  0  0  0  0  0  0  0
   17.0411   28.9713   52.3865 C   0  0  0  0  0  0  0  0  0  0  0  0
   17.5894   27.8236   52.9554 C   0  0  0  0  0  0  0  0  0  0  0  0
   18.2507   27.8961   54.1798 C   0  0  0  0  0  0  0  0  0  0  0  0
   18.3948   29.1224   54.8472 C   0  0  0  0  0  0  0  0  0  0  0  0
   17.8475   30.2695   54.2458 C   0  0  0  0  0  0  0  0  0  0  0  0
   19.0486   29.2328   56.1755 C   0  0  0  0  0  0  0  0  0  0  0  0
   19.4293   30.3667   56.6722 N   0  0  0  0  0  0  0  0  0  0  0  0
   19.9686   30.4824   57.9555 N   0  0  0  0  0  0  0  0  0  0  0  0
   20.3331   31.8461   58.3786 C   0  0  0  0  0  0  0  0  0  0  0  0
   21.7206   32.2720   57.9089 C   0  0  0  0  0  0  0  0  0  0  0  0
   22.7963   32.2649   58.7941 C   0  0  0  0  0  0  0  0  0  0  0  0
   24.0522   32.6951   58.3785 C   0  0  0  0  0  0  0  0  0  0  0  0
   24.2472   33.0977   57.0600 C   0  0  0  0  0  0  0  0  0  0  0  0
   23.1958   33.0793   56.1281 C   0  0  0  0  0  0  0  0  0  0  0  0
   21.9239   32.6937   56.5928 C   0  0  0  0  0  0  0  0  0  0  0  0
   23.4330   33.3796   54.6769 C   0  0  0  0  0  0  0  0  0  0  0  0
   24.6802   33.7794   54.2962 N   0  0  0  0  0  0  0  0  0  0  0  0
   24.9031   33.9133   52.9625 C   0  0  0  0  0  0  0  0  0  0  0  0
   23.9128   33.6533   51.9985 C   0  0  0  0  0  0  0  0  0  0  0  0
   24.0590   33.7624   50.6310 O   0  0  0  0  0  0  0  0  0  0  0  0
   25.3682   33.8936   50.0961 C   0  0  0  0  0  0  0  0  0  0  0  0
   25.2906   34.1837   48.5896 C   0  0  0  0  0  0  0  0  0  0  0  0
   24.4426   33.2044   47.7586 C   0  0  0  0  0  0  0  0  0  0  0  0
   25.0473   31.7801   47.8070 N   0  0  0  0  0  0  0  0  0  0  0  0
   24.2954   30.8488   48.7809 C   0  0  0  0  0  0  0  0  0  0  0  0
   25.1638   31.1328   46.4103 C   0  0  0  0  0  0  0  0  0  0  0  0
   22.6661   33.2759   52.4938 C   0  0  0  0  0  0  0  0  0  0  0  0
   22.4069   33.1346   53.8163 N   0  0  0  0  0  0  0  0  0  0  0  0
   20.2003   29.4356   58.8239 C   0  0  0  0  0  0  0  0  0  0  0  0
   20.6470   29.5261   59.9699 O   0  0  0  0  0  0  0  0  0  0  0  0
   19.8279   28.1599   58.2375 C   0  0  0  0  0  0  0  0  0  0  0  0
   19.2824   28.0585   57.0032 C   0  0  0  0  0  0  0  0  0  0  0  0
   15.4607   32.3773   51.1753 H   0  0  0  0  0  0  0  0  0  0  0  0
   14.9536   30.7288   51.5196 H   0  0  0  0  0  0  0  0  0  0  0  0
   16.3925   31.0382   50.5195 H   0  0  0  0  0  0  0  0  0  0  0  0
   16.5238   28.8765   51.4445 H   0  0  0  0  0  0  0  0  0  0  0  0
   17.5001   26.8726   52.4500 H   0  0  0  0  0  0  0  0  0  0  0  0
   18.6505   26.9777   54.5828 H   0  0  0  0  0  0  0  0  0  0  0  0
   17.9226   31.2309   54.7333 H   0  0  0  0  0  0  0  0  0  0  0  0
   20.2542   31.9744   59.4611 H   0  0  0  0  0  0  0  0  0  0  0  0
   19.5997   32.5483   57.9772 H   0  0  0  0  0  0  0  0  0  0  0  0
   22.6550   31.9262   59.8103 H   0  0  0  0  0  0  0  0  0  0  0  0
   24.8822   32.7074   59.0703 H   0  0  0  0  0  0  0  0  0  0  0  0
   25.2435   33.3963   56.7680 H   0  0  0  0  0  0  0  0  0  0  0  0
   21.0817   32.6749   55.9159 H   0  0  0  0  0  0  0  0  0  0  0  0
   25.9011   34.2229   52.6925 H   0  0  0  0  0  0  0  0  0  0  0  0
   25.9545   32.9947   50.2961 H   0  0  0  0  0  0  0  0  0  0  0  0
   25.8725   34.7261   50.5758 H   0  0  0  0  0  0  0  0  0  0  0  0
   26.3021   34.2342   48.1833 H   0  0  0  0  0  0  0  0  0  0  0  0
   24.8764   35.1844   48.4581 H   0  0  0  0  0  0  0  0  0  0  0  0
   24.4351   33.5175   46.7129 H   0  0  0  0  0  0  0  0  0  0  0  0
   23.4051   33.1450   48.0939 H   0  0  0  0  0  0  0  0  0  0  0  0
   24.3216   31.2958   49.7746 H   0  0  0  0  0  0  0  0  0  0  0  0
   24.8287   29.9003   48.7760 H   0  0  0  0  0  0  0  0  0  0  0  0
   23.2708   30.7319   48.4224 H   0  0  0  0  0  0  0  0  0  0  0  0
   25.7776   31.7918   45.7935 H   0  0  0  0  0  0  0  0  0  0  0  0
   24.1577   31.0240   46.0012 H   0  0  0  0  0  0  0  0  0  0  0  0
   25.6512   30.1646   46.5354 H   0  0  0  0  0  0  0  0  0  0  0  0
   21.8477   33.0829   51.8173 H   0  0  0  0  0  0  0  0  0  0  0  0
   19.9866   27.2680   58.8255 H   0  0  0  0  0  0  0  0  0  0  0  0
   19.0200   27.0669   56.6661 H   0  0  0  0  0  0  0  0  0  0  0  0
   25.9970   31.8662   48.1636 H   0  0  0  0  0  0  0  0  0  0  0  0
  1  2  1  0
  1 36  1  0
  1 37  1  0
  1 38  1  0
  2  3  1  0
  3  4  2  0
  3  8  1  0
  4  5  1  0
  4 39  1  0
  5  6  2  0
  5 40  1  0
  6  7  1  0
  6 41  1  0
  7  8  2  0
  7  9  1  0
  8 42  1  0
  9 10  2  0
  9 35  1  0
 10 11  1  0
 11 12  1  0
 11 32  1  0
 12 13  1  0
 12 43  1  0
 12 44  1  0
 13 14  2  0
 13 18  1  0
 14 15  1  0
 14 45  1  0
 15 16  2  0
 15 46  1  0
 16 17  1  0
 16 47  1  0
 17 18  2  0
 17 19  1  0
 18 48  1  0
 19 20  2  0
 19 31  1  0
 20 21  1  0
 21 22  2  0
 21 49  1  0
 22 23  1  0
 22 30  1  0
 23 24  1  0
 24 25  1  0
 24 50  1  0
 24 51  1  0
 25 26  1  0
 25 52  1  0
 25 53  1  0
 26 27  1  0
 26 54  1  0
 26 55  1  0
 27 28  1  0
 27 29  1  0
 27 65  1  0
 28 56  1  0
 28 57  1  0
 28 58  1  0
 29 59  1  0
 29 60  1  0
 29 61  1  0
 30 31  2  0
 30 62  1  0
 32 33  2  0
 32 34  1  0
 34 35  2  0
 34 63  1  0
 35 64  1  0
M  CHG  1  27   1
M  END
>  <s_user_Name>  (2) 
CHEMBL3402759_5.7

>  <IC50[nM]>  (2) 
5.7000000000000002

>  <atom.dprop.PartialCharge>  (2) 
0.114153385 -0.32243046 0.13637671 -0.19079211 -0.09442526 -0.12838574 -0.096267544 -0.13380161 0.36598244 -0.37966308 -0.17785531 0.1466452 -0.10425261 -0.09605395 -0.12874812 -0.09759419 -0.15719828 -0.08709973 0.63961154 -0.6242863 0.4276728 -0.17758955 -0.3184637 0.1314885 -0.117212236 0.10783224 -0.6841691 0.07737771 0.07737771 0.4276728 -0.6242863 0.65518254 -0.61320186 -0.21960977 -0.1424689 0.047898196 0.047898196 0.047898196 0.14413401 0.13318913 0.1424856 0.15461451 0.08548406 0.08548406 0.14797433 0.13941295 0.14344609 0.14621362 0.042783685 0.043846685 0.043846685 0.077660136 0.077660136 0.10618022 0.10618022 0.10453632 0.10453632 0.10453632 0.10453632 0.10453632 0.10453632 0.042783685 0.16702528 0.15919168 0.44797286

>  <experimental dG reference units>  (2) 
nM

>  <experimental dG reference field>  (2) 
IC50[nM]

>  <kJ/mol experimental dG>  (2) 
-47.34981018742611

>  <kcal/mol experimental dG>  (2) 
-11.316876239824595

$$$$
CHEMBL3402747_3400
     RDKit          3D

 42 45  0  0  0  0  0  0  0  0999 V2000
   25.5431   34.0167   52.0099 C   0  0  0  0  0  0  0  0  0  0  0  0
   24.4529   33.6951   52.9986 C   0  0  0  0  0  0  0  0  0  0  0  0
   23.2283   33.4386   52.6013 N   0  0  0  0  0  0  0  0  0  0  0  0
   22.5648   33.1682   53.7948 O   0  0  0  0  0  0  0  0  0  0  0  0
   23.5069   33.3110   54.7624 C   0  0  0  0  0  0  0  0  0  0  0  0
   24.6793   33.6555   54.2948 N   0  0  0  0  0  0  0  0  0  0  0  0
   23.1484   32.9710   56.1722 C   0  0  0  0  0  0  0  0  0  0  0  0
   24.1344   32.9719   57.1665 C   0  0  0  0  0  0  0  0  0  0  0  0
   23.8296   32.5724   58.4640 C   0  0  0  0  0  0  0  0  0  0  0  0
   22.5336   32.1634   58.7765 C   0  0  0  0  0  0  0  0  0  0  0  0
   21.5356   32.1524   57.8009 C   0  0  0  0  0  0  0  0  0  0  0  0
   20.1190   31.7033   58.1537 C   0  0  0  0  0  0  0  0  0  0  0  0
   19.8547   30.2890   57.8266 N   0  0  0  0  0  0  0  0  0  0  0  0
   19.3939   30.0363   56.5265 N   0  0  0  0  0  0  0  0  0  0  0  0
   19.1443   28.8364   56.1040 C   0  0  0  0  0  0  0  0  0  0  0  0
   19.3793   27.7544   57.0439 C   0  0  0  0  0  0  0  0  0  0  0  0
   19.8517   27.9868   58.2887 C   0  0  0  0  0  0  0  0  0  0  0  0
   20.1318   29.3242   58.7773 C   0  0  0  0  0  0  0  0  0  0  0  0
   20.5581   29.5291   59.9176 O   0  0  0  0  0  0  0  0  0  0  0  0
   18.6470   28.5427   54.7422 C   0  0  0  0  0  0  0  0  0  0  0  0
   18.9989   29.3821   53.6736 C   0  0  0  0  0  0  0  0  0  0  0  0
   18.5680   29.1037   52.3782 C   0  0  0  0  0  0  0  0  0  0  0  0
   18.9207   29.9232   51.3580 F   0  0  0  0  0  0  0  0  0  0  0  0
   17.7745   27.9883   52.1293 C   0  0  0  0  0  0  0  0  0  0  0  0
   17.4160   27.1433   53.1780 C   0  0  0  0  0  0  0  0  0  0  0  0
   16.6527   26.0569   52.9396 F   0  0  0  0  0  0  0  0  0  0  0  0
   17.8499   27.4178   54.4732 C   0  0  0  0  0  0  0  0  0  0  0  0
   21.8443   32.5788   56.5052 C   0  0  0  0  0  0  0  0  0  0  0  0
   25.3046   34.9123   51.4367 H   0  0  0  0  0  0  0  0  0  0  0  0
   25.6690   33.2106   51.2865 H   0  0  0  0  0  0  0  0  0  0  0  0
   26.5130   34.1784   52.4818 H   0  0  0  0  0  0  0  0  0  0  0  0
   25.1478   33.2695   56.9375 H   0  0  0  0  0  0  0  0  0  0  0  0
   24.5978   32.5697   59.2236 H   0  0  0  0  0  0  0  0  0  0  0  0
   22.3124   31.8481   59.7866 H   0  0  0  0  0  0  0  0  0  0  0  0
   19.9234   31.9198   59.2077 H   0  0  0  0  0  0  0  0  0  0  0  0
   19.3994   32.3301   57.6206 H   0  0  0  0  0  0  0  0  0  0  0  0
   19.2155   26.7259   56.7598 H   0  0  0  0  0  0  0  0  0  0  0  0
   20.0350   27.1557   58.9509 H   0  0  0  0  0  0  0  0  0  0  0  0
   19.6206   30.2537   53.8274 H   0  0  0  0  0  0  0  0  0  0  0  0
   17.4481   27.7728   51.1249 H   0  0  0  0  0  0  0  0  0  0  0  0
   17.5620   26.7298   55.2564 H   0  0  0  0  0  0  0  0  0  0  0  0
   21.0727   32.5628   55.7483 H   0  0  0  0  0  0  0  0  0  0  0  0
  1  2  1  0
  1 29  1  0
  1 30  1  0
  1 31  1  0
  2  3  2  0
  2  6  1  0
  3  4  1  0
  4  5  1  0
  5  6  2  0
  5  7  1  0
  7  8  2  0
  7 28  1  0
  8  9  1  0
  8 32  1  0
  9 10  2  0
  9 33  1  0
 10 11  1  0
 10 34  1  0
 11 12  1  0
 11 28  2  0
 12 13  1  0
 12 35  1  0
 12 36  1  0
 13 14  1  0
 13 18  1  0
 14 15  2  0
 15 16  1  0
 15 20  1  0
 16 17  2  0
 16 37  1  0
 17 18  1  0
 17 38  1  0
 18 19  2  0
 20 21  2  0
 20 27  1  0
 21 22  1  0
 21 39  1  0
 22 23  1  0
 22 24  2  0
 24 25  1  0
 24 40  1  0
 25 26  1  0
 25 27  2  0
 27 41  1  0
 28 42  1  0
M  END
>  <s_user_Name>  (3) 
CHEMBL3402747_3400

>  <IC50[nM]>  (3) 
3400

>  <atom.dprop.PartialCharge>  (3) 
-0.12084241 0.53668696 -0.37407106 -0.14751805 0.5673804 -0.68185365 -0.14420426 -0.082132444 -0.14191326 -0.08110075 -0.10445587 0.14813471 -0.17744303 -0.37560937 0.35638005 -0.14280841 -0.21865419 0.65347487 -0.6149325 -0.07860364 -0.16493858 0.16033569 -0.13544278 -0.19528487 0.16033569 -0.13544278 -0.16493858 -0.0761 0.065590665 0.065590665 0.065590665 0.15720585 0.14299983 0.1491463 0.08465139 0.08465139 0.1583143 0.16529477 0.1570116 0.16713816 0.1570116 0.15536521

>  <experimental dG reference units>  (3) 
nM

>  <experimental dG reference field>  (3) 
IC50[nM]

>  <kJ/mol experimental dG>  (3) 
-31.408236865757672

>  <kcal/mol experimental dG>  (3) 
-7.506748772886633

$$$$
CHEMBL3402744_300
     RDKit          3D

 42 44  0  0  0  0  0  0  0  0999 V2000
   25.1164   34.0885   51.5934 C   0  0  0  0  0  0  0  0  0  0  0  0
   24.1301   33.7369   52.5533 O   0  0  0  0  0  0  0  0  0  0  0  0
   24.3822   33.8574   53.8672 C   0  0  0  0  0  0  0  0  0  0  0  0
   25.4212   34.3253   54.3389 O   0  0  0  0  0  0  0  0  0  0  0  0
   23.2845   33.3698   54.5611 N   0  0  0  0  0  0  0  0  0  0  0  0
   23.1453   33.1032   55.9319 C   0  0  0  0  0  0  0  0  0  0  0  0
   24.2134   33.1207   56.8434 C   0  0  0  0  0  0  0  0  0  0  0  0
   24.0130   32.7263   58.1651 C   0  0  0  0  0  0  0  0  0  0  0  0
   22.7541   32.3009   58.5857 C   0  0  0  0  0  0  0  0  0  0  0  0
   21.6774   32.2902   57.6945 C   0  0  0  0  0  0  0  0  0  0  0  0
   20.2905   31.8639   58.1736 C   0  0  0  0  0  0  0  0  0  0  0  0
   19.9601   30.4564   57.8723 N   0  0  0  0  0  0  0  0  0  0  0  0
   19.4739   30.2001   56.5844 N   0  0  0  0  0  0  0  0  0  0  0  0
   19.1911   29.0032   56.1719 C   0  0  0  0  0  0  0  0  0  0  0  0
   19.4025   27.9265   57.1277 C   0  0  0  0  0  0  0  0  0  0  0  0
   19.8697   28.1685   58.3739 C   0  0  0  0  0  0  0  0  0  0  0  0
   20.2016   29.5029   58.8403 C   0  0  0  0  0  0  0  0  0  0  0  0
   20.6427   29.7018   59.9757 O   0  0  0  0  0  0  0  0  0  0  0  0
   18.6876   28.7180   54.8040 C   0  0  0  0  0  0  0  0  0  0  0  0
   18.8911   29.6524   53.7735 C   0  0  0  0  0  0  0  0  0  0  0  0
   18.4516   29.3961   52.4744 C   0  0  0  0  0  0  0  0  0  0  0  0
   18.6544   30.3132   51.5022 F   0  0  0  0  0  0  0  0  0  0  0  0
   17.8112   28.1968   52.1757 C   0  0  0  0  0  0  0  0  0  0  0  0
   17.5967   27.2584   53.1819 C   0  0  0  0  0  0  0  0  0  0  0  0
   16.9685   26.0957   52.8982 F   0  0  0  0  0  0  0  0  0  0  0  0
   18.0276   27.5199   54.4833 C   0  0  0  0  0  0  0  0  0  0  0  0
   21.8774   32.7029   56.3720 C   0  0  0  0  0  0  0  0  0  0  0  0
   24.7176   33.9666   50.5869 H   0  0  0  0  0  0  0  0  0  0  0  0
   25.9984   33.4536   51.6874 H   0  0  0  0  0  0  0  0  0  0  0  0
   25.4266   35.1259   51.7108 H   0  0  0  0  0  0  0  0  0  0  0  0
   22.4934   33.1213   53.9845 H   0  0  0  0  0  0  0  0  0  0  0  0
   25.2119   33.4073   56.5509 H   0  0  0  0  0  0  0  0  0  0  0  0
   24.8450   32.7315   58.8552 H   0  0  0  0  0  0  0  0  0  0  0  0
   22.6174   31.9774   59.6070 H   0  0  0  0  0  0  0  0  0  0  0  0
   20.1987   32.0823   59.2391 H   0  0  0  0  0  0  0  0  0  0  0  0
   19.5424   32.5108   57.7099 H   0  0  0  0  0  0  0  0  0  0  0  0
   19.2125   26.8963   56.8666 H   0  0  0  0  0  0  0  0  0  0  0  0
   20.0246   27.3442   59.0538 H   0  0  0  0  0  0  0  0  0  0  0  0
   19.4020   30.5850   53.9648 H   0  0  0  0  0  0  0  0  0  0  0  0
   17.4868   27.9916   51.1669 H   0  0  0  0  0  0  0  0  0  0  0  0
   17.8297   26.7622   55.2275 H   0  0  0  0  0  0  0  0  0  0  0  0
   21.0463   32.6822   55.6804 H   0  0  0  0  0  0  0  0  0  0  0  0
  1  2  1  0
  1 28  1  0
  1 29  1  0
  1 30  1  0
  2  3  1  0
  3  4  2  0
  3  5  1  0
  5  6  1  0
  5 31  1  0
  6  7  2  0
  6 27  1  0
  7  8  1  0
  7 32  1  0
  8  9  2  0
  8 33  1  0
  9 10  1  0
  9 34  1  0
 10 11  1  0
 10 27  2  0
 11 12  1  0
 11 35  1  0
 11 36  1  0
 12 13  1  0
 12 17  1  0
 13 14  2  0
 14 15  1  0
 14 19  1  0
 15 16  2  0
 15 37  1  0
 16 17  1  0
 16 38  1  0
 17 18  2  0
 19 20  2  0
 19 26  1  0
 20 21  1  0
 20 39  1  0
 21 22  1  0
 21 23  2  0
 23 24  1  0
 23 40  1  0
 24 25  1  0
 24 26  2  0
 26 41  1  0
 27 42  1  0
M  END
>  <s_user_Name>  (4) 
CHEMBL3402744_300

>  <IC50[nM]>  (4) 
300

>  <atom.dprop.PartialCharge>  (4) 
0.14164576 -0.44840738 0.7427944 -0.56928647 -0.453947 0.07725722 -0.1276745 -0.119079076 -0.116246335 -0.079748325 0.14192984 -0.17875981 -0.37600896 0.35653362 -0.1426548 -0.21850057 0.6533729 -0.6147789 -0.07845003 -0.16478498 0.16048929 -0.13528916 -0.19513127 0.16048929 -0.13528916 -0.16478498 -0.15988097 0.054085374 0.054085374 0.054085374 0.33695823 0.15744175 0.1384572 0.14548108 0.0840023 0.0840023 0.15846792 0.16544837 0.1571652 0.16729176 0.1571652 0.13005248

>  <experimental dG reference units>  (4) 
nM

>  <experimental dG reference field>  (4) 
IC50[nM]

>  <kJ/mol experimental dG>  (4) 
-37.46389884403122

>  <kcal/mol experimental dG>  (4) 
-8.954086721804785

$$$$
CHEMBL3402745_200
     RDKit          3D

 45 47  0  0  0  0  0  0  0  0999 V2000
   25.0527   33.1189   50.3652 C   0  0  0  0  0  0  0  0  0  0  0  0
   25.2375   33.9564   51.6334 C   0  0  0  0  0  0  0  0  0  0  0  0
   24.2400   33.5921   52.5819 O   0  0  0  0  0  0  0  0  0  0  0  0
   24.4282   33.8098   53.8972 C   0  0  0  0  0  0  0  0  0  0  0  0
   25.4390   34.3263   54.3763 O   0  0  0  0  0  0  0  0  0  0  0  0
   23.3098   33.3499   54.5803 N   0  0  0  0  0  0  0  0  0  0  0  0
   23.1429   33.1003   55.9525 C   0  0  0  0  0  0  0  0  0  0  0  0
   24.1938   33.1211   56.8848 C   0  0  0  0  0  0  0  0  0  0  0  0
   23.9667   32.7324   58.2058 C   0  0  0  0  0  0  0  0  0  0  0  0
   22.6972   32.3172   58.6060 C   0  0  0  0  0  0  0  0  0  0  0  0
   21.6398   32.2993   57.6938 C   0  0  0  0  0  0  0  0  0  0  0  0
   20.2464   31.8624   58.1398 C   0  0  0  0  0  0  0  0  0  0  0  0
   19.9426   30.4543   57.8241 N   0  0  0  0  0  0  0  0  0  0  0  0
   19.4473   30.2067   56.5407 N   0  0  0  0  0  0  0  0  0  0  0  0
   19.1631   29.0149   56.1226 C   0  0  0  0  0  0  0  0  0  0  0  0
   19.4188   27.9275   57.0571 C   0  0  0  0  0  0  0  0  0  0  0  0
   19.9112   28.1569   58.2948 C   0  0  0  0  0  0  0  0  0  0  0  0
   20.2164   29.4915   58.7783 C   0  0  0  0  0  0  0  0  0  0  0  0
   20.6462   29.6922   59.9173 O   0  0  0  0  0  0  0  0  0  0  0  0
   18.5969   28.7490   54.7746 C   0  0  0  0  0  0  0  0  0  0  0  0
   18.6632   29.7346   53.7733 C   0  0  0  0  0  0  0  0  0  0  0  0
   18.1274   29.5090   52.5051 C   0  0  0  0  0  0  0  0  0  0  0  0
   18.1820   30.4830   51.5669 F   0  0  0  0  0  0  0  0  0  0  0  0
   17.5325   28.2870   52.2075 C   0  0  0  0  0  0  0  0  0  0  0  0
   17.4615   27.2957   53.1803 C   0  0  0  0  0  0  0  0  0  0  0  0
   16.8723   26.1122   52.8989 F   0  0  0  0  0  0  0  0  0  0  0  0
   17.9871   27.5251   54.4501 C   0  0  0  0  0  0  0  0  0  0  0  0
   21.8673   32.7053   56.3737 C   0  0  0  0  0  0  0  0  0  0  0  0
   25.8043   33.3794   49.6188 H   0  0  0  0  0  0  0  0  0  0  0  0
   24.0682   33.2847   49.9236 H   0  0  0  0  0  0  0  0  0  0  0  0
   25.1529   32.0538   50.5802 H   0  0  0  0  0  0  0  0  0  0  0  0
   26.2436   33.7973   52.0292 H   0  0  0  0  0  0  0  0  0  0  0  0
   25.1414   35.0188   51.4060 H   0  0  0  0  0  0  0  0  0  0  0  0
   22.5298   33.0978   53.9939 H   0  0  0  0  0  0  0  0  0  0  0  0
   25.1966   33.4091   56.6086 H   0  0  0  0  0  0  0  0  0  0  0  0
   24.7839   32.7419   58.9129 H   0  0  0  0  0  0  0  0  0  0  0  0
   22.5404   31.9926   59.6252 H   0  0  0  0  0  0  0  0  0  0  0  0
   20.1165   32.0758   59.2041 H   0  0  0  0  0  0  0  0  0  0  0  0
   19.5061   32.5002   57.6515 H   0  0  0  0  0  0  0  0  0  0  0  0
   19.2516   26.8958   56.7834 H   0  0  0  0  0  0  0  0  0  0  0  0
   20.1112   27.3275   58.9566 H   0  0  0  0  0  0  0  0  0  0  0  0
   19.1246   30.6921   53.9680 H   0  0  0  0  0  0  0  0  0  0  0  0
   17.1261   28.1055   51.2210 H   0  0  0  0  0  0  0  0  0  0  0  0
   17.8873   26.7273   55.1702 H   0  0  0  0  0  0  0  0  0  0  0  0
   21.0500   32.6764   55.6678 H   0  0  0  0  0  0  0  0  0  0  0  0
  1  2  1  0
  1 29  1  0
  1 30  1  0
  1 31  1  0
  2  3  1  0
  2 32  1  0
  2 33  1  0
  3  4  1  0
  4  5  2  0
  4  6  1  0
  6  7  1  0
  6 34  1  0
  7  8  2  0
  7 28  1  0
  8  9  1  0
  8 35  1  0
  9 10  2  0
  9 36  1  0
 10 11  1  0
 10 37  1  0
 11 12  1  0
 11 28  2  0
 12 13  1  0
 12 38  1  0
 12 39  1  0
 13 14  1  0
 13 18  1  0
 14 15  2  0
 15 16  1  0
 15 20  1  0
 16 17  2  0
 16 40  1  0
 17 18  1  0
 17 41  1  0
 18 19  2  0
 20 21  2  0
 20 27  1  0
 21 22  1  0
 21 42  1  0
 22 23  1  0
 22 24  2  0
 24 25  1  0
 24 43  1  0
 25 26  1  0
 25 27  2  0
 27 44  1  0
 28 45  1  0
M  END
>  <s_user_Name>  (5) 
CHEMBL3402745_200

>  <IC50[nM]>  (5) 
200

>  <atom.dprop.PartialCharge>  (5) 
-0.112456724 0.15271647 -0.45407838 0.7456556 -0.5704403 -0.45608371 0.07828839 -0.12763928 -0.11922369 -0.11639095 -0.07989295 0.14178522 -0.17890443 -0.37615362 0.35638902 -0.14279942 -0.2186452 0.6532282 -0.6149235 -0.078594655 -0.1649296 0.16034469 -0.1354338 -0.19527589 0.16034469 -0.1354338 -0.1649296 -0.16002892 0.049610406 0.049610406 0.049610406 0.06287602 0.06287602 0.33553755 0.15729713 0.13831258 0.14533646 0.08385767 0.08385767 0.15832329 0.16530374 0.15702058 0.16714714 0.15702058 0.12990786

>  <experimental dG reference units>  (5) 
nM

>  <experimental dG reference field>  (5) 
IC50[nM]

>  <kJ/mol experimental dG>  (5) 
-38.475272100257015

>  <kcal/mol experimental dG>  (5) 
-9.19581073141898

$$$$
CHEMBL3402761_1
     RDKit          3D

 63 67  0  0  0  0  0  0  0  0999 V2000
   20.6270   29.5265   59.9403 O   0  0  0  0  0  0  0  0  0  0  0  0
   20.1829   29.3653   58.8001 C   0  0  0  0  0  0  0  0  0  0  0  0
   19.8506   28.0457   58.2897 C   0  0  0  0  0  0  0  0  0  0  0  0
   19.3754   27.8491   57.0403 C   0  0  0  0  0  0  0  0  0  0  0  0
   19.1767   28.9531   56.1176 C   0  0  0  0  0  0  0  0  0  0  0  0
   19.4497   30.1369   56.5714 N   0  0  0  0  0  0  0  0  0  0  0  0
   19.9289   30.3529   57.8691 N   0  0  0  0  0  0  0  0  0  0  0  0
   20.2272   31.7541   58.2201 C   0  0  0  0  0  0  0  0  0  0  0  0
   21.6335   32.2198   57.8298 C   0  0  0  0  0  0  0  0  0  0  0  0
   22.6557   32.2345   58.7758 C   0  0  0  0  0  0  0  0  0  0  0  0
   23.9255   32.6947   58.4300 C   0  0  0  0  0  0  0  0  0  0  0  0
   24.1809   33.1262   57.1291 C   0  0  0  0  0  0  0  0  0  0  0  0
   23.1796   33.1186   56.1459 C   0  0  0  0  0  0  0  0  0  0  0  0
   21.8982   32.6757   56.5339 C   0  0  0  0  0  0  0  0  0  0  0  0
   23.4866   33.4885   54.7188 C   0  0  0  0  0  0  0  0  0  0  0  0
   24.7735   33.7939   54.3763 N   0  0  0  0  0  0  0  0  0  0  0  0
   25.0455   33.9261   53.0474 C   0  0  0  0  0  0  0  0  0  0  0  0
   24.0793   33.7512   52.0531 C   0  0  0  0  0  0  0  0  0  0  0  0
   24.4620   33.8044   50.7208 O   0  0  0  0  0  0  0  0  0  0  0  0
   23.5165   33.5647   49.6672 C   0  0  0  0  0  0  0  0  0  0  0  0
   22.8204   32.1758   49.7068 C   0  0  0  0  0  0  0  0  0  0  0  0
   23.1410   31.3200   48.5625 N   0  0  0  0  0  0  0  0  0  0  0  0
   22.2179   30.1779   48.5055 C   0  0  0  0  0  0  0  0  0  0  0  0
   22.5690   29.2456   47.3242 C   0  0  0  0  0  0  0  0  0  0  0  0
   23.9278   28.8247   47.3937 O   0  0  0  0  0  0  0  0  0  0  0  0
   24.8503   29.9097   47.4537 C   0  0  0  0  0  0  0  0  0  0  0  0
   24.5319   30.8525   48.6318 C   0  0  0  0  0  0  0  0  0  0  0  0
   22.7764   33.5181   52.5153 C   0  0  0  0  0  0  0  0  0  0  0  0
   22.4655   33.3787   53.8269 N   0  0  0  0  0  0  0  0  0  0  0  0
   18.7029   28.7100   54.7362 C   0  0  0  0  0  0  0  0  0  0  0  0
   18.9902   29.6554   53.7347 C   0  0  0  0  0  0  0  0  0  0  0  0
   18.5804   29.4532   52.4203 C   0  0  0  0  0  0  0  0  0  0  0  0
   17.8711   28.3033   52.0789 C   0  0  0  0  0  0  0  0  0  0  0  0
   17.5750   27.3490   53.0531 C   0  0  0  0  0  0  0  0  0  0  0  0
   17.9978   27.5468   54.3733 C   0  0  0  0  0  0  0  0  0  0  0  0
   16.8353   26.1529   52.6794 C   0  0  0  0  0  0  0  0  0  0  0  0
   16.2471   25.2029   52.3739 N   0  0  0  0  0  0  0  0  0  0  0  0
   20.0054   27.1985   58.9415 H   0  0  0  0  0  0  0  0  0  0  0  0
   19.1747   26.8274   56.7472 H   0  0  0  0  0  0  0  0  0  0  0  0
   20.0624   31.9423   59.2831 H   0  0  0  0  0  0  0  0  0  0  0  0
   19.5002   32.4009   57.7262 H   0  0  0  0  0  0  0  0  0  0  0  0
   22.4704   31.8955   59.7838 H   0  0  0  0  0  0  0  0  0  0  0  0
   24.7161   32.7081   59.1652 H   0  0  0  0  0  0  0  0  0  0  0  0
   25.1811   33.4579   56.8889 H   0  0  0  0  0  0  0  0  0  0  0  0
   21.0942   32.6452   55.8119 H   0  0  0  0  0  0  0  0  0  0  0  0
   26.0725   34.1248   52.7752 H   0  0  0  0  0  0  0  0  0  0  0  0
   24.0621   33.6894   48.7289 H   0  0  0  0  0  0  0  0  0  0  0  0
   22.7678   34.3543   49.6289 H   0  0  0  0  0  0  0  0  0  0  0  0
   21.7449   32.3447   49.7367 H   0  0  0  0  0  0  0  0  0  0  0  0
   23.0711   31.6427   50.6256 H   0  0  0  0  0  0  0  0  0  0  0  0
   22.2387   29.6086   49.4364 H   0  0  0  0  0  0  0  0  0  0  0  0
   21.1943   30.5352   48.3859 H   0  0  0  0  0  0  0  0  0  0  0  0
   21.9285   28.3638   47.3407 H   0  0  0  0  0  0  0  0  0  0  0  0
   22.3764   29.7434   46.3695 H   0  0  0  0  0  0  0  0  0  0  0  0
   25.8514   29.5045   47.5698 H   0  0  0  0  0  0  0  0  0  0  0  0
   24.8528   30.4604   46.5109 H   0  0  0  0  0  0  0  0  0  0  0  0
   24.7139   30.3366   49.5754 H   0  0  0  0  0  0  0  0  0  0  0  0
   25.2195   31.6992   48.6085 H   0  0  0  0  0  0  0  0  0  0  0  0
   21.9441   33.3882   51.8472 H   0  0  0  0  0  0  0  0  0  0  0  0
   19.5448   30.5542   53.9657 H   0  0  0  0  0  0  0  0  0  0  0  0
   18.8169   30.1842   51.6597 H   0  0  0  0  0  0  0  0  0  0  0  0
   17.5652   28.1587   51.0520 H   0  0  0  0  0  0  0  0  0  0  0  0
   17.7611   26.7954   55.1128 H   0  0  0  0  0  0  0  0  0  0  0  0
  1  2  2  0
  2  3  1  0
  2  7  1  0
  3  4  2  0
  3 38  1  0
  4  5  1  0
  4 39  1  0
  5  6  2  0
  5 30  1  0
  6  7  1  0
  7  8  1  0
  8  9  1  0
  8 40  1  0
  8 41  1  0
  9 10  2  0
  9 14  1  0
 10 11  1  0
 10 42  1  0
 11 12  2  0
 11 43  1  0
 12 13  1  0
 12 44  1  0
 13 14  2  0
 13 15  1  0
 14 45  1  0
 15 16  2  0
 15 29  1  0
 16 17  1  0
 17 18  2  0
 17 46  1  0
 18 19  1  0
 18 28  1  0
 19 20  1  0
 20 21  1  0
 20 47  1  0
 20 48  1  0
 21 22  1  0
 21 49  1  0
 21 50  1  0
 22 23  1  0
 22 27  1  0
 23 24  1  0
 23 51  1  0
 23 52  1  0
 24 25  1  0
 24 53  1  0
 24 54  1  0
 25 26  1  0
 26 27  1  0
 26 55  1  0
 26 56  1  0
 27 57  1  0
 27 58  1  0
 28 29  2  0
 28 59  1  0
 30 31  2  0
 30 35  1  0
 31 32  1  0
 31 60  1  0
 32 33  2  0
 32 61  1  0
 33 34  1  0
 33 62  1  0
 34 35  2  0
 34 36  1  0
 35 63  1  0
 36 37  3  0
M  END
>  <s_user_Name>  (6) 
CHEMBL3402761_1

>  <IC50[nM]>  (6) 
1

>  <atom.dprop.PartialCharge>  (6) 
-0.6156216 0.65276283 -0.21965605 -0.14506066 0.37010875 -0.38013378 -0.17780203 0.14422579 -0.10667211 -0.09847331 -0.13116762 -0.100013554 -0.15961778 -0.08951911 0.6371918 -0.62630934 0.39602128 -0.14807126 -0.3058648 0.10811077 0.17179283 -0.7362932 0.1432729 0.12273796 -0.4084455 0.12273796 0.1432729 0.39602128 -0.62630934 -0.13801633 -0.08836333 -0.14047946 -0.07809663 -0.017795272 -0.07374635 0.23824544 -0.36222622 0.16460568 0.1580703 0.08306438 0.08306438 0.14555481 0.13699338 0.14102651 0.14379406 0.04143367 0.052036203 0.052036203 0.053856768 0.053856768 0.041871816 0.041871816 0.05657838 0.05657838 0.05657838 0.05657838 0.041871816 0.041871816 0.04143367 0.14146481 0.14520831 0.14750238 0.14844862

>  <experimental dG reference units>  (6) 
nM

>  <experimental dG reference field>  (6) 
IC50[nM]

>  <kJ/mol experimental dG>  (6) 
-51.6911478448447

>  <kcal/mol experimental dG>  (6) 
-12.354480842458102

$$$$
CHEMBL3402750_400
     RDKit          3D

 43 46  0  0  0  0  0  0  0  0999 V2000
   23.7416   33.4339   50.5656 C   0  0  0  0  0  0  0  0  0  0  0  0
   23.9419   33.5262   52.0577 C   0  0  0  0  0  0  0  0  0  0  0  0
   25.0472   33.9262   52.8109 C   0  0  0  0  0  0  0  0  0  0  0  0
   24.9413   33.8882   54.1251 N   0  0  0  0  0  0  0  0  0  0  0  0
   23.7703   33.4371   54.5091 C   0  0  0  0  0  0  0  0  0  0  0  0
   22.6918   33.0941   53.1909 S   0  0  0  0  0  0  0  0  0  0  0  0
   23.3991   33.1258   55.9322 C   0  0  0  0  0  0  0  0  0  0  0  0
   24.3940   33.1223   56.9191 C   0  0  0  0  0  0  0  0  0  0  0  0
   24.1066   32.7375   58.2267 C   0  0  0  0  0  0  0  0  0  0  0  0
   22.8110   32.3634   58.5715 C   0  0  0  0  0  0  0  0  0  0  0  0
   21.7948   32.3802   57.6162 C   0  0  0  0  0  0  0  0  0  0  0  0
   20.3655   32.0248   58.0262 C   0  0  0  0  0  0  0  0  0  0  0  0
   20.0019   30.6204   57.7683 N   0  0  0  0  0  0  0  0  0  0  0  0
   19.4474   30.3566   56.5137 N   0  0  0  0  0  0  0  0  0  0  0  0
   19.0638   29.1726   56.1515 C   0  0  0  0  0  0  0  0  0  0  0  0
   19.2956   28.1043   57.1128 C   0  0  0  0  0  0  0  0  0  0  0  0
   19.8470   28.3480   58.3259 C   0  0  0  0  0  0  0  0  0  0  0  0
   20.2312   29.6832   58.7547 C   0  0  0  0  0  0  0  0  0  0  0  0
   20.6849   29.9063   59.8819 O   0  0  0  0  0  0  0  0  0  0  0  0
   18.4133   28.9105   54.8422 C   0  0  0  0  0  0  0  0  0  0  0  0
   17.9351   29.9898   54.0754 C   0  0  0  0  0  0  0  0  0  0  0  0
   17.2559   29.7777   52.8782 C   0  0  0  0  0  0  0  0  0  0  0  0
   16.7949   30.8353   52.1707 F   0  0  0  0  0  0  0  0  0  0  0  0
   17.0400   28.4827   52.4202 C   0  0  0  0  0  0  0  0  0  0  0  0
   17.5120   27.4001   53.1582 C   0  0  0  0  0  0  0  0  0  0  0  0
   17.2881   26.1399   52.7214 F   0  0  0  0  0  0  0  0  0  0  0  0
   18.2026   27.6096   54.3522 C   0  0  0  0  0  0  0  0  0  0  0  0
   22.0909   32.7664   56.3023 C   0  0  0  0  0  0  0  0  0  0  0  0
   23.6844   32.3960   50.2370 H   0  0  0  0  0  0  0  0  0  0  0  0
   24.5565   33.9022   50.0124 H   0  0  0  0  0  0  0  0  0  0  0  0
   22.8173   33.9215   50.2539 H   0  0  0  0  0  0  0  0  0  0  0  0
   25.9799   34.2599   52.3772 H   0  0  0  0  0  0  0  0  0  0  0  0
   25.4112   33.3943   56.6782 H   0  0  0  0  0  0  0  0  0  0  0  0
   24.8920   32.7270   58.9682 H   0  0  0  0  0  0  0  0  0  0  0  0
   22.5972   32.0572   59.5827 H   0  0  0  0  0  0  0  0  0  0  0  0
   20.2132   32.2909   59.0739 H   0  0  0  0  0  0  0  0  0  0  0  0
   19.6776   32.6821   57.4901 H   0  0  0  0  0  0  0  0  0  0  0  0
   19.0342   27.0804   56.8932 H   0  0  0  0  0  0  0  0  0  0  0  0
   20.0092   27.5307   59.0138 H   0  0  0  0  0  0  0  0  0  0  0  0
   18.0667   31.0101   54.4070 H   0  0  0  0  0  0  0  0  0  0  0  0
   16.4995   28.3179   51.4996 H   0  0  0  0  0  0  0  0  0  0  0  0
   18.5540   26.7358   54.8749 H   0  0  0  0  0  0  0  0  0  0  0  0
   21.2972   32.7657   55.5704 H   0  0  0  0  0  0  0  0  0  0  0  0
  1  2  1  0
  1 29  1  0
  1 30  1  0
  1 31  1  0
  2  3  2  0
  2  6  1  0
  3  4  1  0
  3 32  1  0
  4  5  2  0
  5  6  1  0
  5  7  1  0
  7  8  2  0
  7 28  1  0
  8  9  1  0
  8 33  1  0
  9 10  2  0
  9 34  1  0
 10 11  1  0
 10 35  1  0
 11 12  1  0
 11 28  2  0
 12 13  1  0
 12 36  1  0
 12 37  1  0
 13 14  1  0
 13 18  1  0
 14 15  2  0
 15 16  1  0
 15 20  1  0
 16 17  2  0
 16 38  1  0
 17 18  1  0
 17 39  1  0
 18 19  2  0
 20 21  2  0
 20 27  1  0
 21 22  1  0
 21 40  1  0
 22 23  1  0
 22 24  2  0
 24 25  1  0
 24 41  1  0
 25 26  1  0
 25 27  2  0
 27 42  1  0
 28 43  1  0
M  END
>  <s_user_Name>  (7) 
CHEMBL3402750_400

>  <IC50[nM]>  (7) 
400

>  <atom.dprop.PartialCharge>  (7) 
-0.019376218 -0.17083767 0.32353887 -0.6168771 0.45876282 -0.12146476 -0.13302226 -0.09223911 -0.13374808 -0.09600581 -0.09828076 0.14554814 -0.17860514 -0.3762741 0.3557155 -0.14347304 -0.21931884 0.6528102 -0.6155972 -0.07926827 -0.1656032 0.15967111 -0.13610746 -0.19594952 0.15967111 -0.13610746 -0.1656032 -0.10393211 0.051163662 0.051163662 0.051163662 0.045813613 0.15186556 0.13917845 0.14629966 0.08344701 0.08344701 0.15764965 0.1646301 0.15634695 0.16647351 0.15634695 0.13698359

>  <experimental dG reference units>  (7) 
nM

>  <experimental dG reference field>  (7) 
IC50[nM]

>  <kJ/mol experimental dG>  (7) 
-36.746318098968146

>  <kcal/mol experimental dG>  (7) 
-8.782580807592769

$$$$
CHEMBL3402743_42
     RDKit          3D

 57 59  0  0  0  0  0  0  0  0999 V2000
   24.1307   31.2988   47.8294 C   0  0  0  0  0  0  0  0  0  0  0  0
   25.0469   32.2887   48.5804 N   0  0  0  0  0  0  0  0  0  0  0  0
   25.1226   33.6645   47.8845 C   0  0  0  0  0  0  0  0  0  0  0  0
   24.7621   32.3673   50.0986 C   0  0  0  0  0  0  0  0  0  0  0  0
   23.4022   33.0226   50.4217 C   0  0  0  0  0  0  0  0  0  0  0  0
   23.1284   33.0780   51.9260 C   0  0  0  0  0  0  0  0  0  0  0  0
   24.1634   33.8263   52.5697 O   0  0  0  0  0  0  0  0  0  0  0  0
   24.3524   33.8857   53.9176 C   0  0  0  0  0  0  0  0  0  0  0  0
   25.4033   34.3257   54.3776 O   0  0  0  0  0  0  0  0  0  0  0  0
   23.2482   33.4270   54.6434 N   0  0  0  0  0  0  0  0  0  0  0  0
   23.1370   33.1250   56.0094 C   0  0  0  0  0  0  0  0  0  0  0  0
   24.2143   33.1248   56.9090 C   0  0  0  0  0  0  0  0  0  0  0  0
   24.0253   32.7062   58.2246 C   0  0  0  0  0  0  0  0  0  0  0  0
   22.7705   32.2714   58.6521 C   0  0  0  0  0  0  0  0  0  0  0  0
   21.6863   32.2743   57.7701 C   0  0  0  0  0  0  0  0  0  0  0  0
   20.3025   31.8402   58.2496 C   0  0  0  0  0  0  0  0  0  0  0  0
   19.9634   30.4477   57.9026 N   0  0  0  0  0  0  0  0  0  0  0  0
   19.4463   30.2402   56.6192 N   0  0  0  0  0  0  0  0  0  0  0  0
   19.1308   29.0660   56.1704 C   0  0  0  0  0  0  0  0  0  0  0  0
   19.3736   27.9499   57.0773 C   0  0  0  0  0  0  0  0  0  0  0  0
   19.8766   28.1437   58.3179 C   0  0  0  0  0  0  0  0  0  0  0  0
   20.2104   29.4566   58.8326 C   0  0  0  0  0  0  0  0  0  0  0  0
   20.6463   29.6206   59.9751 O   0  0  0  0  0  0  0  0  0  0  0  0
   18.5497   28.8548   54.8168 C   0  0  0  0  0  0  0  0  0  0  0  0
   18.0818   27.5994   54.3835 C   0  0  0  0  0  0  0  0  0  0  0  0
   17.5074   27.4408   53.1218 C   0  0  0  0  0  0  0  0  0  0  0  0
   17.0467   26.2296   52.7384 F   0  0  0  0  0  0  0  0  0  0  0  0
   17.4033   28.5299   52.2618 C   0  0  0  0  0  0  0  0  0  0  0  0
   17.8673   29.7781   52.6646 C   0  0  0  0  0  0  0  0  0  0  0  0
   17.7609   30.8419   51.8371 F   0  0  0  0  0  0  0  0  0  0  0  0
   18.4356   29.9375   53.9275 C   0  0  0  0  0  0  0  0  0  0  0  0
   21.8747   32.7140   56.4546 C   0  0  0  0  0  0  0  0  0  0  0  0
   24.1876   30.3383   48.3460 H   0  0  0  0  0  0  0  0  0  0  0  0
   24.5150   31.2115   46.8123 H   0  0  0  0  0  0  0  0  0  0  0  0
   23.1151   31.6971   47.8315 H   0  0  0  0  0  0  0  0  0  0  0  0
   25.8108   34.2890   48.4583 H   0  0  0  0  0  0  0  0  0  0  0  0
   24.1211   34.0936   47.8521 H   0  0  0  0  0  0  0  0  0  0  0  0
   25.5049   33.4937   46.8770 H   0  0  0  0  0  0  0  0  0  0  0  0
   24.8307   31.3415   50.4685 H   0  0  0  0  0  0  0  0  0  0  0  0
   25.6021   32.9259   50.5162 H   0  0  0  0  0  0  0  0  0  0  0  0
   23.3634   34.0403   50.0275 H   0  0  0  0  0  0  0  0  0  0  0  0
   22.5892   32.4739   49.9457 H   0  0  0  0  0  0  0  0  0  0  0  0
   22.1627   33.5458   52.1190 H   0  0  0  0  0  0  0  0  0  0  0  0
   23.0888   32.0635   52.3319 H   0  0  0  0  0  0  0  0  0  0  0  0
   22.4154   33.2522   54.1019 H   0  0  0  0  0  0  0  0  0  0  0  0
   25.2089   33.4237   56.6125 H   0  0  0  0  0  0  0  0  0  0  0  0
   24.8630   32.7065   58.9086 H   0  0  0  0  0  0  0  0  0  0  0  0
   22.6414   31.9261   59.6686 H   0  0  0  0  0  0  0  0  0  0  0  0
   20.2139   32.0303   59.3222 H   0  0  0  0  0  0  0  0  0  0  0  0
   19.5576   32.5036   57.8026 H   0  0  0  0  0  0  0  0  0  0  0  0
   19.1728   26.9292   56.7918 H   0  0  0  0  0  0  0  0  0  0  0  0
   20.0565   27.2935   58.9600 H   0  0  0  0  0  0  0  0  0  0  0  0
   18.1260   26.7262   55.0106 H   0  0  0  0  0  0  0  0  0  0  0  0
   16.9594   28.4049   51.2856 H   0  0  0  0  0  0  0  0  0  0  0  0
   18.7785   30.9226   54.2072 H   0  0  0  0  0  0  0  0  0  0  0  0
   21.0345   32.6999   55.7730 H   0  0  0  0  0  0  0  0  0  0  0  0
   25.9892   31.8985   48.5302 H   0  0  0  0  0  0  0  0  0  0  0  0
  1  2  1  0
  1 33  1  0
  1 34  1  0
  1 35  1  0
  2  3  1  0
  2  4  1  0
  2 57  1  0
  3 36  1  0
  3 37  1  0
  3 38  1  0
  4  5  1  0
  4 39  1  0
  4 40  1  0
  5  6  1  0
  5 41  1  0
  5 42  1  0
  6  7  1  0
  6 43  1  0
  6 44  1  0
  7  8  1  0
  8  9  2  0
  8 10  1  0
 10 11  1  0
 10 45  1  0
 11 12  2  0
 11 32  1  0
 12 13  1  0
 12 46  1  0
 13 14  2  0
 13 47  1  0
 14 15  1  0
 14 48  1  0
 15 16  1  0
 15 32  2  0
 16 17  1  0
 16 49  1  0
 16 50  1  0
 17 18  1  0
 17 22  1  0
 18 19  2  0
 19 20  1  0
 19 24  1  0
 20 21  2  0
 20 51  1  0
 21 22  1  0
 21 52  1  0
 22 23  2  0
 24 25  2  0
 24 31  1  0
 25 26  1  0
 25 53  1  0
 26 27  1  0
 26 28  2  0
 28 29  1  0
 28 54  1  0
 29 30  1  0
 29 31  2  0
 31 55  1  0
 32 56  1  0
M  CHG  1   2   1
M  END
>  <s_user_Name>  (8) 
CHEMBL3402743_42

>  <IC50[nM]>  (8) 
42

>  <atom.dprop.PartialCharge>  (8) 
0.07864339 -0.6821201 0.07864339 0.10937478 -0.12832825 0.15591294 -0.4657246 0.7489686 -0.559378 -0.4510616 0.08111932 -0.12470022 -0.11628464 -0.11345196 -0.07695384 0.14472423 -0.17596531 -0.37321404 0.35932767 -0.1398603 -0.215706 0.6561676 -0.611984 -0.07565555 -0.16199055 0.16328359 -0.13249445 -0.19233671 0.16328359 -0.13249445 -0.16199055 -0.15708975 0.10575388 0.10575388 0.10575388 0.10575388 0.10575388 0.10575388 0.107982606 0.107982606 0.07911205 0.07911205 0.06848617 0.06848617 0.33869922 0.16023627 0.14125171 0.14827558 0.086797 0.086797 0.16126248 0.16824298 0.15995981 0.17008635 0.15995981 0.13284694 0.4492352

>  <experimental dG reference units>  (8) 
nM

>  <experimental dG reference field>  (8) 
IC50[nM]

>  <kJ/mol experimental dG>  (8) 
-42.3680790605117

>  <kcal/mol experimental dG>  (8) 
-10.126213924596485

$$$$
CHEMBL3402752_30000
     RDKit          3D

 43 46  0  0  0  0  0  0  0  0999 V2000
   25.8234   33.9368   52.0874 C   0  0  0  0  0  0  0  0  0  0  0  0
   24.5773   33.5529   52.8371 C   0  0  0  0  0  0  0  0  0  0  0  0
   24.5033   33.5215   54.1481 N   0  0  0  0  0  0  0  0  0  0  0  0
   23.3141   33.1507   54.6047 C   0  0  0  0  0  0  0  0  0  0  0  0
   22.3783   32.9204   53.5909 C   0  0  0  0  0  0  0  0  0  0  0  0
   23.1081   33.1260   52.0358 S   0  0  0  0  0  0  0  0  0  0  0  0
   23.0782   32.9428   56.0753 C   0  0  0  0  0  0  0  0  0  0  0  0
   24.1214   33.0156   57.0120 C   0  0  0  0  0  0  0  0  0  0  0  0
   23.9060   32.6758   58.3464 C   0  0  0  0  0  0  0  0  0  0  0  0
   22.6470   32.2458   58.7660 C   0  0  0  0  0  0  0  0  0  0  0  0
   21.5865   32.1977   57.8576 C   0  0  0  0  0  0  0  0  0  0  0  0
   20.1983   31.7432   58.2997 C   0  0  0  0  0  0  0  0  0  0  0  0
   19.9103   30.3472   57.9267 N   0  0  0  0  0  0  0  0  0  0  0  0
   19.4457   30.1367   56.6240 N   0  0  0  0  0  0  0  0  0  0  0  0
   19.1955   28.9527   56.1602 C   0  0  0  0  0  0  0  0  0  0  0  0
   19.4462   27.8387   57.0634 C   0  0  0  0  0  0  0  0  0  0  0  0
   19.9156   28.0338   58.3163 C   0  0  0  0  0  0  0  0  0  0  0  0
   20.1990   29.3563   58.8423 C   0  0  0  0  0  0  0  0  0  0  0  0
   20.6466   29.5307   59.9757 O   0  0  0  0  0  0  0  0  0  0  0  0
   18.6782   28.7120   54.7928 C   0  0  0  0  0  0  0  0  0  0  0  0
   18.8686   29.6755   53.7873 C   0  0  0  0  0  0  0  0  0  0  0  0
   18.4018   29.4581   52.4919 C   0  0  0  0  0  0  0  0  0  0  0  0
   18.5947   30.3979   51.5403 F   0  0  0  0  0  0  0  0  0  0  0  0
   17.7355   28.2754   52.1779 C   0  0  0  0  0  0  0  0  0  0  0  0
   17.5376   27.3094   53.1591 C   0  0  0  0  0  0  0  0  0  0  0  0
   16.8840   26.1648   52.8599 F   0  0  0  0  0  0  0  0  0  0  0  0
   18.0078   27.5260   54.4534 C   0  0  0  0  0  0  0  0  0  0  0  0
   21.8052   32.5682   56.5284 C   0  0  0  0  0  0  0  0  0  0  0  0
   25.6127   34.7585   51.4074 H   0  0  0  0  0  0  0  0  0  0  0  0
   26.1895   33.1263   51.4574 H   0  0  0  0  0  0  0  0  0  0  0  0
   26.6381   34.2399   52.7438 H   0  0  0  0  0  0  0  0  0  0  0  0
   21.3476   32.6089   53.6669 H   0  0  0  0  0  0  0  0  0  0  0  0
   25.1167   33.3023   56.7016 H   0  0  0  0  0  0  0  0  0  0  0  0
   24.7283   32.7185   59.0468 H   0  0  0  0  0  0  0  0  0  0  0  0
   22.4998   31.9283   59.7886 H   0  0  0  0  0  0  0  0  0  0  0  0
   20.0766   31.9170   59.3695 H   0  0  0  0  0  0  0  0  0  0  0  0
   19.4477   32.3927   57.8405 H   0  0  0  0  0  0  0  0  0  0  0  0
   19.2890   26.8170   56.7517 H   0  0  0  0  0  0  0  0  0  0  0  0
   20.1073   27.1837   58.9532 H   0  0  0  0  0  0  0  0  0  0  0  0
   19.3903   30.5998   53.9954 H   0  0  0  0  0  0  0  0  0  0  0  0
   17.3745   28.1070   51.1755 H   0  0  0  0  0  0  0  0  0  0  0  0
   17.8281   26.7513   55.1826 H   0  0  0  0  0  0  0  0  0  0  0  0
   20.9769   32.5013   55.8382 H   0  0  0  0  0  0  0  0  0  0  0  0
  1  2  1  0
  1 29  1  0
  1 30  1  0
  1 31  1  0
  2  3  2  0
  2  6  1  0
  3  4  1  0
  4  5  2  0
  4  7  1  0
  5  6  1  0
  5 32  1  0
  7  8  2  0
  7 28  1  0
  8  9  1  0
  8 33  1  0
  9 10  2  0
  9 34  1  0
 10 11  1  0
 10 35  1  0
 11 12  1  0
 11 28  2  0
 12 13  1  0
 12 36  1  0
 12 37  1  0
 13 14  1  0
 13 18  1  0
 14 15  2  0
 15 16  1  0
 15 20  1  0
 16 17  2  0
 16 38  1  0
 17 18  1  0
 17 39  1  0
 18 19  2  0
 20 21  2  0
 20 27  1  0
 21 22  1  0
 21 40  1  0
 22 23  1  0
 22 24  2  0
 24 25  1  0
 24 41  1  0
 25 26  1  0
 25 27  2  0
 27 42  1  0
 28 43  1  0
M  END
>  <s_user_Name>  (9) 
CHEMBL3402752_30000

>  <IC50[nM]>  (9) 
30000

>  <atom.dprop.PartialCharge>  (9) 
-0.13564742 0.40895933 -0.6097028 0.38811353 -0.24036166 -0.10537201 -0.10832744 -0.10243383 -0.13832296 -0.10086296 -0.10203542 0.14475036 -0.17908971 -0.37645695 0.3555327 -0.14365587 -0.21950166 0.65262735 -0.61578006 -0.079451084 -0.16578603 0.1594883 -0.1362903 -0.19613235 0.1594883 -0.1362903 -0.16578603 -0.10345331 0.060032636 0.060032636 0.060032636 0.18067637 0.1445826 0.13565522 0.14482655 0.08315523 0.08315523 0.15746683 0.16444728 0.15616411 0.16629067 0.15616411 0.1390976

>  <experimental dG reference units>  (9) 
nM

>  <experimental dG reference field>  (9) 
IC50[nM]

>  <kJ/mol experimental dG>  (9) 
-25.976977100732405

>  <kcal/mol experimental dG>  (9) 
-6.208646534591875

$$$$
CHEMBL3402755_4200
     RDKit          3D

 45 48  0  0  0  0  0  0  0  0999 V2000
   24.9268   34.0387   50.7958 C   0  0  0  0  0  0  0  0  0  0  0  0
   24.3292   33.7968   52.1682 C   0  0  0  0  0  0  0  0  0  0  0  0
   23.0499   33.2693   52.3344 C   0  0  0  0  0  0  0  0  0  0  0  0
   22.6036   33.0410   53.6347 C   0  0  0  0  0  0  0  0  0  0  0  0
   23.4538   33.3556   54.7057 C   0  0  0  0  0  0  0  0  0  0  0  0
   24.6754   33.9192   54.4700 N   0  0  0  0  0  0  0  0  0  0  0  0
   25.1181   34.1276   53.2212 N   0  0  0  0  0  0  0  0  0  0  0  0
   23.1239   33.0265   56.1337 C   0  0  0  0  0  0  0  0  0  0  0  0
   24.1214   33.0302   57.1236 C   0  0  0  0  0  0  0  0  0  0  0  0
   23.8473   32.6424   58.4326 C   0  0  0  0  0  0  0  0  0  0  0  0
   22.5704   32.2174   58.7761 C   0  0  0  0  0  0  0  0  0  0  0  0
   21.5526   32.2075   57.8229 C   0  0  0  0  0  0  0  0  0  0  0  0
   20.1497   31.7465   58.2043 C   0  0  0  0  0  0  0  0  0  0  0  0
   19.8854   30.3397   57.8543 N   0  0  0  0  0  0  0  0  0  0  0  0
   19.4128   30.1090   56.5605 N   0  0  0  0  0  0  0  0  0  0  0  0
   19.1571   28.9176   56.1180 C   0  0  0  0  0  0  0  0  0  0  0  0
   19.4059   27.8195   57.0375 C   0  0  0  0  0  0  0  0  0  0  0  0
   19.8870   28.0345   58.2822 C   0  0  0  0  0  0  0  0  0  0  0  0
   20.1852   29.3636   58.7850 C   0  0  0  0  0  0  0  0  0  0  0  0
   20.6460   29.5449   59.9141 O   0  0  0  0  0  0  0  0  0  0  0  0
   18.6463   28.6600   54.7513 C   0  0  0  0  0  0  0  0  0  0  0  0
   17.9441   27.4851   54.4303 C   0  0  0  0  0  0  0  0  0  0  0  0
   17.4733   27.2606   53.1364 C   0  0  0  0  0  0  0  0  0  0  0  0
   16.7942   26.1288   52.8531 F   0  0  0  0  0  0  0  0  0  0  0  0
   17.7086   28.2024   52.1378 C   0  0  0  0  0  0  0  0  0  0  0  0
   18.4025   29.3727   52.4339 C   0  0  0  0  0  0  0  0  0  0  0  0
   18.6243   30.2907   51.4676 F   0  0  0  0  0  0  0  0  0  0  0  0
   18.8686   29.6005   53.7292 C   0  0  0  0  0  0  0  0  0  0  0  0
   21.8292   32.6350   56.5192 C   0  0  0  0  0  0  0  0  0  0  0  0
   25.0400   35.1100   50.6219 H   0  0  0  0  0  0  0  0  0  0  0  0
   24.2962   33.6273   50.0037 H   0  0  0  0  0  0  0  0  0  0  0  0
   25.9117   33.5709   50.7171 H   0  0  0  0  0  0  0  0  0  0  0  0
   22.4207   33.0324   51.4858 H   0  0  0  0  0  0  0  0  0  0  0  0
   21.6343   32.5922   53.7757 H   0  0  0  0  0  0  0  0  0  0  0  0
   25.1348   33.3176   56.8881 H   0  0  0  0  0  0  0  0  0  0  0  0
   24.6327   32.6583   59.1741 H   0  0  0  0  0  0  0  0  0  0  0  0
   22.3648   31.8897   59.7856 H   0  0  0  0  0  0  0  0  0  0  0  0
   19.9758   31.9310   59.2706 H   0  0  0  0  0  0  0  0  0  0  0  0
   19.4176   32.3850   57.7063 H   0  0  0  0  0  0  0  0  0  0  0  0
   19.2305   26.7935   56.7551 H   0  0  0  0  0  0  0  0  0  0  0  0
   20.0775   27.1977   58.9349 H   0  0  0  0  0  0  0  0  0  0  0  0
   17.7396   26.7272   55.1728 H   0  0  0  0  0  0  0  0  0  0  0  0
   17.3583   28.0202   51.1328 H   0  0  0  0  0  0  0  0  0  0  0  0
   19.4080   30.5144   53.9261 H   0  0  0  0  0  0  0  0  0  0  0  0
   21.0233   32.6247   55.8023 H   0  0  0  0  0  0  0  0  0  0  0  0
  1  2  1  0
  1 30  1  0
  1 31  1  0
  1 32  1  0
  2  3  2  0
  2  7  1  0
  3  4  1  0
  3 33  1  0
  4  5  2  0
  4 34  1  0
  5  6  1  0
  5  8  1  0
  6  7  2  0
  8  9  2  0
  8 29  1  0
  9 10  1  0
  9 35  1  0
 10 11  2  0
 10 36  1  0
 11 12  1  0
 11 37  1  0
 12 13  1  0
 12 29  2  0
 13 14  1  0
 13 38  1  0
 13 39  1  0
 14 15  1  0
 14 19  1  0
 15 16  2  0
 16 17  1  0
 16 21  1  0
 17 18  2  0
 17 40  1  0
 18 19  1  0
 18 41  1  0
 19 20  2  0
 21 22  2  0
 21 28  1  0
 22 23  1  0
 22 42  1  0
 23 24  1  0
 23 25  2  0
 25 26  1  0
 25 43  1  0
 26 27  1  0
 26 28  2  0
 28 44  1  0
 29 45  1  0
M  END
>  <s_user_Name>  (10) 
CHEMBL3402755_4200

>  <IC50[nM]>  (10) 
4200

>  <atom.dprop.PartialCharge>  (10) 
-0.14873697 0.3561538 -0.21132863 -0.14148822 0.33145708 -0.27951753 -0.30715495 -0.12654305 -0.10755499 -0.12898254 -0.099106796 -0.101730935 0.14399534 -0.1779887 -0.37622416 0.35578692 -0.14340161 -0.2192474 0.6528587 -0.6155258 -0.07919684 -0.16553177 0.15974253 -0.13603602 -0.19587809 0.15974253 -0.13603602 -0.16553177 -0.0968027 0.056842513 0.056842513 0.056842513 0.1479619 0.1546115 0.13931277 0.13666962 0.14389771 0.08268924 0.08268924 0.15772109 0.16470154 0.15641838 0.16654493 0.15641838 0.13964514

>  <experimental dG reference units>  (10) 
nM

>  <experimental dG reference field>  (10) 
IC50[nM]

>  <kJ/mol experimental dG>  (10) 
-30.881157317212867

>  <kcal/mol experimental dG>  (10) 
-7.3807737373835725

$$$$
CHEMBL3402758_10
     RDKit          3D

 60 63  0  0  0  0  0  0  0  0999 V2000
   22.9152   29.8931   48.1561 C   0  0  0  0  0  0  0  0  0  0  0  0
   24.2551   30.6483   48.3008 N   0  0  0  0  0  0  0  0  0  0  0  0
   25.1218   30.4724   47.0330 C   0  0  0  0  0  0  0  0  0  0  0  0
   24.0434   32.1319   48.6858 C   0  0  0  0  0  0  0  0  0  0  0  0
   25.3059   32.6758   49.3763 C   0  0  0  0  0  0  0  0  0  0  0  0
   25.1552   34.0797   49.9601 C   0  0  0  0  0  0  0  0  0  0  0  0
   23.9394   34.1774   50.6857 O   0  0  0  0  0  0  0  0  0  0  0  0
   23.8832   33.7800   52.0009 C   0  0  0  0  0  0  0  0  0  0  0  0
   24.9026   33.9265   52.9536 C   0  0  0  0  0  0  0  0  0  0  0  0
   24.7110   33.6572   54.2732 N   0  0  0  0  0  0  0  0  0  0  0  0
   23.4739   33.2169   54.6422 C   0  0  0  0  0  0  0  0  0  0  0  0
   22.4457   33.0003   53.7775 N   0  0  0  0  0  0  0  0  0  0  0  0
   22.6711   33.2812   52.4732 C   0  0  0  0  0  0  0  0  0  0  0  0
   23.2175   32.9270   56.0926 C   0  0  0  0  0  0  0  0  0  0  0  0
   24.2484   32.9698   57.0452 C   0  0  0  0  0  0  0  0  0  0  0  0
   24.0210   32.6233   58.3754 C   0  0  0  0  0  0  0  0  0  0  0  0
   22.7528   32.2188   58.7787 C   0  0  0  0  0  0  0  0  0  0  0  0
   21.6995   32.1904   57.8666 C   0  0  0  0  0  0  0  0  0  0  0  0
   20.3003   31.7816   58.3130 C   0  0  0  0  0  0  0  0  0  0  0  0
   19.9556   30.3998   57.9322 N   0  0  0  0  0  0  0  0  0  0  0  0
   19.4383   30.2304   56.6462 N   0  0  0  0  0  0  0  0  0  0  0  0
   19.0792   29.0738   56.1867 C   0  0  0  0  0  0  0  0  0  0  0  0
   19.3118   27.9338   57.0630 C   0  0  0  0  0  0  0  0  0  0  0  0
   19.8456   28.0864   58.2961 C   0  0  0  0  0  0  0  0  0  0  0  0
   20.1994   29.3881   58.8358 C   0  0  0  0  0  0  0  0  0  0  0  0
   20.6461   29.5264   59.9758 O   0  0  0  0  0  0  0  0  0  0  0  0
   18.4684   28.9016   54.8476 C   0  0  0  0  0  0  0  0  0  0  0  0
   18.2473   27.6429   54.2625 C   0  0  0  0  0  0  0  0  0  0  0  0
   17.6426   27.5449   53.0095 C   0  0  0  0  0  0  0  0  0  0  0  0
   17.2575   28.7188   52.3615 C   0  0  0  0  0  0  0  0  0  0  0  0
   17.4530   29.9497   52.8941 N   0  0  0  0  0  0  0  0  0  0  0  0
   18.0494   30.0246   54.1102 C   0  0  0  0  0  0  0  0  0  0  0  0
   21.9345   32.5596   56.5416 C   0  0  0  0  0  0  0  0  0  0  0  0
   22.3844   29.9730   49.1064 H   0  0  0  0  0  0  0  0  0  0  0  0
   23.1448   28.8479   47.9357 H   0  0  0  0  0  0  0  0  0  0  0  0
   22.3491   30.3567   47.3451 H   0  0  0  0  0  0  0  0  0  0  0  0
   26.0669   30.9958   47.1787 H   0  0  0  0  0  0  0  0  0  0  0  0
   24.5712   30.8895   46.1875 H   0  0  0  0  0  0  0  0  0  0  0  0
   25.2982   29.4030   46.9013 H   0  0  0  0  0  0  0  0  0  0  0  0
   23.7656   32.6740   47.7807 H   0  0  0  0  0  0  0  0  0  0  0  0
   23.1997   32.1424   49.3791 H   0  0  0  0  0  0  0  0  0  0  0  0
   25.6010   31.9984   50.1797 H   0  0  0  0  0  0  0  0  0  0  0  0
   26.1285   32.7270   48.6630 H   0  0  0  0  0  0  0  0  0  0  0  0
   26.0407   34.3279   50.5421 H   0  0  0  0  0  0  0  0  0  0  0  0
   25.1051   34.8078   49.1483 H   0  0  0  0  0  0  0  0  0  0  0  0
   25.8688   34.3330   52.6953 H   0  0  0  0  0  0  0  0  0  0  0  0
   21.8477   33.1258   51.7966 H   0  0  0  0  0  0  0  0  0  0  0  0
   25.2516   33.2562   56.7614 H   0  0  0  0  0  0  0  0  0  0  0  0
   24.8370   32.6599   59.0843 H   0  0  0  0  0  0  0  0  0  0  0  0
   22.5869   31.9258   59.8043 H   0  0  0  0  0  0  0  0  0  0  0  0
   20.1888   31.9511   59.3862 H   0  0  0  0  0  0  0  0  0  0  0  0
   19.5784   32.4646   57.8623 H   0  0  0  0  0  0  0  0  0  0  0  0
   19.0698   26.9259   56.7633 H   0  0  0  0  0  0  0  0  0  0  0  0
   20.0130   27.2201   58.9200 H   0  0  0  0  0  0  0  0  0  0  0  0
   18.5430   26.7263   54.7473 H   0  0  0  0  0  0  0  0  0  0  0  0
   17.4839   26.5810   52.5493 H   0  0  0  0  0  0  0  0  0  0  0  0
   16.7860   28.6808   51.3901 H   0  0  0  0  0  0  0  0  0  0  0  0
   18.1755   31.0262   54.4931 H   0  0  0  0  0  0  0  0  0  0  0  0
   21.1066   32.5214   55.8496 H   0  0  0  0  0  0  0  0  0  0  0  0
   24.7582   30.2204   49.0693 H   0  0  0  0  0  0  0  0  0  0  0  0
  1  2  1  0
  1 34  1  0
  1 35  1  0
  1 36  1  0
  2  3  1  0
  2  4  1  0
  2 60  1  0
  3 37  1  0
  3 38  1  0
  3 39  1  0
  4  5  1  0
  4 40  1  0
  4 41  1  0
  5  6  1  0
  5 42  1  0
  5 43  1  0
  6  7  1  0
  6 44  1  0
  6 45  1  0
  7  8  1  0
  8  9  2  0
  8 13  1  0
  9 10  1  0
  9 46  1  0
 10 11  2  0
 11 12  1  0
 11 14  1  0
 12 13  2  0
 13 47  1  0
 14 15  2  0
 14 33  1  0
 15 16  1  0
 15 48  1  0
 16 17  2  0
 16 49  1  0
 17 18  1  0
 17 50  1  0
 18 19  1  0
 18 33  2  0
 19 20  1  0
 19 51  1  0
 19 52  1  0
 20 21  1  0
 20 25  1  0
 21 22  2  0
 22 23  1  0
 22 27  1  0
 23 24  2  0
 23 53  1  0
 24 25  1  0
 24 54  1  0
 25 26  2  0
 27 28  2  0
 27 32  1  0
 28 29  1  0
 28 55  1  0
 29 30  2  0
 29 56  1  0
 30 31  1  0
 30 57  1  0
 31 32  2  0
 32 58  1  0
 33 59  1  0
M  CHG  1   2   1
M  END
>  <s_user_Name>  (11) 
CHEMBL3402758_10

>  <IC50[nM]>  (11) 
10

>  <atom.dprop.PartialCharge>  (11) 
0.07794147 -0.6836051 0.07794147 0.10839598 -0.11664844 0.13205224 -0.31789988 -0.17702577 0.4282365 -0.6237223 0.6401754 -0.6237223 0.4282365 -0.15663451 -0.097030416 -0.12818432 -0.09549019 -0.10368881 0.14765985 -0.17130014 -0.38311732 0.3618464 -0.14845368 -0.21380818 0.6562739 -0.612638 -0.23342767 -0.069860235 -0.25102818 0.41371202 -0.66435456 0.42677167 -0.08653596 0.10510008 0.10510008 0.10510008 0.10510008 0.10510008 0.10510008 0.10674399 0.10674399 0.078223966 0.078223966 0.04441048 0.04441048 0.043347485 0.043347485 0.1440099 0.13997677 0.14853813 0.0860479 0.0860479 0.16250923 0.16768047 0.14266557 0.15092435 0.029348437 0.029816547 0.14677742 0.44853666

>  <experimental dG reference units>  (11) 
nM

>  <experimental dG reference field>  (11) 
IC50[nM]

>  <kJ/mol experimental dG>  (11) 
-45.9476869731953

>  <kcal/mol experimental dG>  (11) 
-10.981760748851649

$$$$
CHEMBL3402749_500
     RDKit          3D

 43 46  0  0  0  0  0  0  0  0999 V2000
   23.1880   32.9654   51.3241 C   0  0  0  0  0  0  0  0  0  0  0  0
   23.7323   33.2938   52.6892 C   0  0  0  0  0  0  0  0  0  0  0  0
   23.0073   32.9075   53.7669 O   0  0  0  0  0  0  0  0  0  0  0  0
   23.7531   33.3159   54.8274 C   0  0  0  0  0  0  0  0  0  0  0  0
   24.8721   33.9267   54.4916 N   0  0  0  0  0  0  0  0  0  0  0  0
   24.8644   33.9263   53.1729 C   0  0  0  0  0  0  0  0  0  0  0  0
   23.2892   32.9610   56.2041 C   0  0  0  0  0  0  0  0  0  0  0  0
   24.2048   32.9742   57.2615 C   0  0  0  0  0  0  0  0  0  0  0  0
   23.8221   32.5836   58.5407 C   0  0  0  0  0  0  0  0  0  0  0  0
   22.5149   32.1657   58.7756 C   0  0  0  0  0  0  0  0  0  0  0  0
   21.5818   32.1409   57.7366 C   0  0  0  0  0  0  0  0  0  0  0  0
   20.1455   31.7068   58.0189 C   0  0  0  0  0  0  0  0  0  0  0  0
   19.8732   30.2933   57.7046 N   0  0  0  0  0  0  0  0  0  0  0  0
   19.4074   30.0305   56.4136 N   0  0  0  0  0  0  0  0  0  0  0  0
   19.1391   28.8313   56.0058 C   0  0  0  0  0  0  0  0  0  0  0  0
   19.3681   27.7586   56.9585 C   0  0  0  0  0  0  0  0  0  0  0  0
   19.8455   28.0025   58.1991 C   0  0  0  0  0  0  0  0  0  0  0  0
   20.1419   29.3425   58.6718 C   0  0  0  0  0  0  0  0  0  0  0  0
   20.5653   29.5511   59.8118 O   0  0  0  0  0  0  0  0  0  0  0  0
   18.6372   28.5332   54.6463 C   0  0  0  0  0  0  0  0  0  0  0  0
   17.8474   27.4018   54.3854 C   0  0  0  0  0  0  0  0  0  0  0  0
   17.4031   27.1223   53.0956 C   0  0  0  0  0  0  0  0  0  0  0  0
   16.6416   26.0297   52.8665 F   0  0  0  0  0  0  0  0  0  0  0  0
   17.7375   27.9725   52.0441 C   0  0  0  0  0  0  0  0  0  0  0  0
   18.5167   29.1012   52.2829 C   0  0  0  0  0  0  0  0  0  0  0  0
   18.8413   29.9267   51.2621 F   0  0  0  0  0  0  0  0  0  0  0  0
   18.9657   29.3808   53.5740 C   0  0  0  0  0  0  0  0  0  0  0  0
   21.9709   32.5531   56.4542 C   0  0  0  0  0  0  0  0  0  0  0  0
   22.9983   31.8957   51.2119 H   0  0  0  0  0  0  0  0  0  0  0  0
   23.8766   33.2580   50.5307 H   0  0  0  0  0  0  0  0  0  0  0  0
   22.2474   33.4816   51.1371 H   0  0  0  0  0  0  0  0  0  0  0  0
   25.6629   34.3552   52.5844 H   0  0  0  0  0  0  0  0  0  0  0  0
   25.2268   33.2791   57.0912 H   0  0  0  0  0  0  0  0  0  0  0  0
   24.5411   32.6009   59.3448 H   0  0  0  0  0  0  0  0  0  0  0  0
   22.2263   31.8517   59.7692 H   0  0  0  0  0  0  0  0  0  0  0  0
   19.8857   31.9387   59.0540 H   0  0  0  0  0  0  0  0  0  0  0  0
   19.4697   32.3355   57.4353 H   0  0  0  0  0  0  0  0  0  0  0  0
   19.1925   26.7263   56.6886 H   0  0  0  0  0  0  0  0  0  0  0  0
   20.0255   27.1780   58.8725 H   0  0  0  0  0  0  0  0  0  0  0  0
   17.5634   26.7263   55.1785 H   0  0  0  0  0  0  0  0  0  0  0  0
   17.3976   27.7504   51.0440 H   0  0  0  0  0  0  0  0  0  0  0  0
   19.5782   30.2568   53.7298 H   0  0  0  0  0  0  0  0  0  0  0  0
   21.2542   32.5276   55.6465 H   0  0  0  0  0  0  0  0  0  0  0  0
  1  2  1  0
  1 29  1  0
  1 30  1  0
  1 31  1  0
  2  3  1  0
  2  6  2  0
  3  4  1  0
  4  5  2  0
  4  7  1  0
  5  6  1  0
  6 32  1  0
  7  8  2  0
  7 28  1  0
  8  9  1  0
  8 33  1  0
  9 10  2  0
  9 34  1  0
 10 11  1  0
 10 35  1  0
 11 12  1  0
 11 28  2  0
 12 13  1  0
 12 36  1  0
 12 37  1  0
 13 14  1  0
 13 18  1  0
 14 15  2  0
 15 16  1  0
 15 20  1  0
 16 17  2  0
 16 38  1  0
 17 18  1  0
 17 39  1  0
 18 19  2  0
 20 21  2  0
 20 27  1  0
 21 22  1  0
 21 40  1  0
 22 23  1  0
 22 24  2  0
 24 25  1  0
 24 41  1  0
 25 26  1  0
 25 27  2  0
 27 42  1  0
 28 43  1  0
M  END
>  <s_user_Name>  (12) 
CHEMBL3402749_500

>  <IC50[nM]>  (12) 
500

>  <atom.dprop.PartialCharge>  (12) 
-0.12527856 0.17197165 -0.38600838 0.54945064 -0.658347 0.21798348 -0.14142472 -0.07765399 -0.14555454 -0.08769981 -0.10512832 0.14626521 -0.17795272 -0.37611914 0.35587043 -0.1433181 -0.21916388 0.6529651 -0.6154422 -0.07911332 -0.16544826 0.15982604 -0.1359525 -0.19579458 0.15982604 -0.1359525 -0.16544826 -0.0817069 0.061550297 0.061550297 0.061550297 0.05388248 0.15554212 0.14022318 0.14863661 0.084141664 0.084141664 0.15780461 0.16478506 0.15650189 0.16662845 0.15650189 0.15090847

>  <experimental dG reference units>  (12) 
nM

>  <experimental dG reference field>  (12) 
IC50[nM]

>  <kJ/mol experimental dG>  (12) 
-36.189719231185336

>  <kcal/mol experimental dG>  (12) 
-8.649550485464946

$$$$
CHEMBL3402757_6.5
     RDKit          3D

 61 64  0  0  0  0  0  0  0  0999 V2000
   25.3721   31.2219   46.6644 C   0  0  0  0  0  0  0  0  0  0  0  0
   24.2292   31.6762   47.5975 N   0  0  0  0  0  0  0  0  0  0  0  0
   24.1603   30.8253   48.8811 C   0  0  0  0  0  0  0  0  0  0  0  0
   24.1810   33.2089   47.8252 C   0  0  0  0  0  0  0  0  0  0  0  0
   25.4044   33.8076   48.5650 C   0  0  0  0  0  0  0  0  0  0  0  0
   25.4494   33.6181   50.0927 C   0  0  0  0  0  0  0  0  0  0  0  0
   24.1499   33.8272   50.6358 O   0  0  0  0  0  0  0  0  0  0  0  0
   23.9715   33.6722   51.9928 C   0  0  0  0  0  0  0  0  0  0  0  0
   24.9553   33.9009   52.9691 C   0  0  0  0  0  0  0  0  0  0  0  0
   24.7187   33.7452   54.2980 N   0  0  0  0  0  0  0  0  0  0  0  0
   23.4638   33.3512   54.6606 C   0  0  0  0  0  0  0  0  0  0  0  0
   22.4436   33.1319   53.7852 N   0  0  0  0  0  0  0  0  0  0  0  0
   22.7129   33.2993   52.4668 C   0  0  0  0  0  0  0  0  0  0  0  0
   23.2073   33.0414   56.1083 C   0  0  0  0  0  0  0  0  0  0  0  0
   24.2462   33.0690   57.0560 C   0  0  0  0  0  0  0  0  0  0  0  0
   24.0331   32.6782   58.3749 C   0  0  0  0  0  0  0  0  0  0  0  0
   22.7722   32.2476   58.7759 C   0  0  0  0  0  0  0  0  0  0  0  0
   21.7116   32.2359   57.8728 C   0  0  0  0  0  0  0  0  0  0  0  0
   20.3201   31.8105   58.3284 C   0  0  0  0  0  0  0  0  0  0  0  0
   19.9672   30.4340   57.9355 N   0  0  0  0  0  0  0  0  0  0  0  0
   19.4198   30.2849   56.6582 N   0  0  0  0  0  0  0  0  0  0  0  0
   19.0471   29.1359   56.1903 C   0  0  0  0  0  0  0  0  0  0  0  0
   19.2945   27.9828   57.0432 C   0  0  0  0  0  0  0  0  0  0  0  0
   19.8472   28.1166   58.2711 C   0  0  0  0  0  0  0  0  0  0  0  0
   20.2070   29.4083   58.8283 C   0  0  0  0  0  0  0  0  0  0  0  0
   20.6472   29.5276   59.9744 O   0  0  0  0  0  0  0  0  0  0  0  0
   18.3925   28.9878   54.8648 C   0  0  0  0  0  0  0  0  0  0  0  0
   18.2472   27.7417   54.2309 C   0  0  0  0  0  0  0  0  0  0  0  0
   17.5890   27.6339   53.0045 C   0  0  0  0  0  0  0  0  0  0  0  0
   17.0562   28.7685   52.3958 C   0  0  0  0  0  0  0  0  0  0  0  0
   17.1910   30.0122   53.0059 C   0  0  0  0  0  0  0  0  0  0  0  0
   16.6720   31.1185   52.4235 F   0  0  0  0  0  0  0  0  0  0  0  0
   17.8573   30.1210   54.2252 C   0  0  0  0  0  0  0  0  0  0  0  0
   21.9312   32.6478   56.5553 C   0  0  0  0  0  0  0  0  0  0  0  0
   25.3080   31.8113   45.7470 H   0  0  0  0  0  0  0  0  0  0  0  0
   25.2244   30.1595   46.4546 H   0  0  0  0  0  0  0  0  0  0  0  0
   26.3194   31.3882   47.1758 H   0  0  0  0  0  0  0  0  0  0  0  0
   23.4080   31.2663   49.5382 H   0  0  0  0  0  0  0  0  0  0  0  0
   25.1453   30.8109   49.3438 H   0  0  0  0  0  0  0  0  0  0  0  0
   23.8709   29.8206   48.5750 H   0  0  0  0  0  0  0  0  0  0  0  0
   24.0971   33.6212   46.8176 H   0  0  0  0  0  0  0  0  0  0  0  0
   23.2361   33.4125   48.3360 H   0  0  0  0  0  0  0  0  0  0  0  0
   26.3385   33.4600   48.1276 H   0  0  0  0  0  0  0  0  0  0  0  0
   25.3938   34.8815   48.3778 H   0  0  0  0  0  0  0  0  0  0  0  0
   25.8116   32.6248   50.3571 H   0  0  0  0  0  0  0  0  0  0  0  0
   26.1665   34.3265   50.5072 H   0  0  0  0  0  0  0  0  0  0  0  0
   25.9519   34.2201   52.7070 H   0  0  0  0  0  0  0  0  0  0  0  0
   21.8874   33.1258   51.7883 H   0  0  0  0  0  0  0  0  0  0  0  0
   25.2443   33.3742   56.7757 H   0  0  0  0  0  0  0  0  0  0  0  0
   24.8506   32.7011   59.0815 H   0  0  0  0  0  0  0  0  0  0  0  0
   22.6205   31.9255   59.7949 H   0  0  0  0  0  0  0  0  0  0  0  0
   20.2231   31.9635   59.4069 H   0  0  0  0  0  0  0  0  0  0  0  0
   19.5887   32.4978   57.8996 H   0  0  0  0  0  0  0  0  0  0  0  0
   19.0401   26.9809   56.7320 H   0  0  0  0  0  0  0  0  0  0  0  0
   20.0179   27.2405   58.8787 H   0  0  0  0  0  0  0  0  0  0  0  0
   18.6474   26.8346   54.6590 H   0  0  0  0  0  0  0  0  0  0  0  0
   17.4965   26.6686   52.5287 H   0  0  0  0  0  0  0  0  0  0  0  0
   16.5387   28.6851   51.4518 H   0  0  0  0  0  0  0  0  0  0  0  0
   17.9339   31.1003   54.6757 H   0  0  0  0  0  0  0  0  0  0  0  0
   21.0980   32.6179   55.8680 H   0  0  0  0  0  0  0  0  0  0  0  0
   23.3734   31.4683   47.0969 H   0  0  0  0  0  0  0  0  0  0  0  0
  1  2  1  0
  1 35  1  0
  1 36  1  0
  1 37  1  0
  2  3  1  0
  2  4  1  0
  2 61  1  0
  3 38  1  0
  3 39  1  0
  3 40  1  0
  4  5  1  0
  4 41  1  0
  4 42  1  0
  5  6  1  0
  5 43  1  0
  5 44  1  0
  6  7  1  0
  6 45  1  0
  6 46  1  0
  7  8  1  0
  8  9  2  0
  8 13  1  0
  9 10  1  0
  9 47  1  0
 10 11  2  0
 11 12  1  0
 11 14  1  0
 12 13  2  0
 13 48  1  0
 14 15  2  0
 14 34  1  0
 15 16  1  0
 15 49  1  0
 16 17  2  0
 16 50  1  0
 17 18  1  0
 17 51  1  0
 18 19  1  0
 18 34  2  0
 19 20  1  0
 19 52  1  0
 19 53  1  0
 20 21  1  0
 20 25  1  0
 21 22  2  0
 22 23  1  0
 22 27  1  0
 23 24  2  0
 23 54  1  0
 24 25  1  0
 24 55  1  0
 25 26  2  0
 27 28  2  0
 27 33  1  0
 28 29  1  0
 28 56  1  0
 29 30  2  0
 29 57  1  0
 30 31  1  0
 30 58  1  0
 31 32  1  0
 31 33  2  0
 33 59  1  0
 34 60  1  0
M  CHG  1   2   1
M  END
>  <s_user_Name>  (13) 
CHEMBL3402757_6.5

>  <IC50[nM]>  (13) 
6.5

>  <atom.dprop.PartialCharge>  (13) 
0.077943996 -0.6836025 0.077943996 0.10839851 -0.11664592 0.13205476 -0.31789735 -0.17702323 0.42823902 -0.62371975 0.6401779 -0.62371975 0.42823902 -0.15663198 -0.09702788 -0.12818179 -0.095487654 -0.10368627 0.1472115 -0.17529929 -0.3796422 0.3643819 -0.14409332 -0.21716258 0.6557489 -0.61263543 -0.099955894 -0.120884344 -0.1068199 -0.15035717 0.13812944 -0.13678464 -0.14664164 -0.08653343 0.105102606 0.105102606 0.105102606 0.105102606 0.105102606 0.105102606 0.10674652 0.10674652 0.07822649 0.07822649 0.044413004 0.044413004 0.04335001 0.04335001 0.14401242 0.13997929 0.14854066 0.08605042 0.08605042 0.1605582 0.16759163 0.1454998 0.14352736 0.15378577 0.15496159 0.14677995 0.4485392

>  <experimental dG reference units>  (13) 
nM

>  <experimental dG reference field>  (13) 
IC50[nM]

>  <kJ/mol experimental dG>  (13) 
-47.02221178892528

>  <kcal/mol experimental dG>  (13) 
-11.238578343433385

$$$$
CHEMBL3402765_11-charged-pKa-8.1
     RDKit          3D

 62 65  0  0  0  0  0  0  0  0999 V2000
   17.2816   31.0754   52.1112 F   0  0  0  0  0  0  0  0  0  0  0  0
   17.5663   29.9576   52.8176 C   0  0  0  0  0  0  0  0  0  0  0  0
   17.2204   28.7069   52.3169 C   0  0  0  0  0  0  0  0  0  0  0  0
   17.5045   27.5609   53.0572 C   0  0  0  0  0  0  0  0  0  0  0  0
   17.1492   26.3482   52.5773 F   0  0  0  0  0  0  0  0  0  0  0  0
   18.1372   27.6641   54.2964 C   0  0  0  0  0  0  0  0  0  0  0  0
   18.4805   28.9202   54.8291 C   0  0  0  0  0  0  0  0  0  0  0  0
   18.1932   30.0628   54.0561 C   0  0  0  0  0  0  0  0  0  0  0  0
   19.0915   29.0865   56.1754 C   0  0  0  0  0  0  0  0  0  0  0  0
   19.4480   30.2440   56.6384 N   0  0  0  0  0  0  0  0  0  0  0  0
   19.9872   30.4154   57.9169 N   0  0  0  0  0  0  0  0  0  0  0  0
   20.3516   31.7988   58.2814 C   0  0  0  0  0  0  0  0  0  0  0  0
   21.7041   32.2478   57.7248 C   0  0  0  0  0  0  0  0  0  0  0  0
   22.8361   32.2592   58.5463 C   0  0  0  0  0  0  0  0  0  0  0  0
   24.0614   32.6950   58.0440 C   0  0  0  0  0  0  0  0  0  0  0  0
   24.1708   33.1134   56.7180 C   0  0  0  0  0  0  0  0  0  0  0  0
   23.0463   33.1012   55.8772 C   0  0  0  0  0  0  0  0  0  0  0  0
   23.0717   33.4390   54.5115 N   0  0  0  0  0  0  0  0  0  0  0  0
   24.1496   33.7673   53.6964 C   0  0  0  0  0  0  0  0  0  0  0  0
   25.3229   33.9268   54.0317 O   0  0  0  0  0  0  0  0  0  0  0  0
   23.6922   33.9229   52.4360 O   0  0  0  0  0  0  0  0  0  0  0  0
   24.5555   34.3241   51.3706 C   0  0  0  0  0  0  0  0  0  0  0  0
   24.9605   33.1210   50.5062 C   0  0  0  0  0  0  0  0  0  0  0  0
   23.7698   32.4740   49.7769 C   0  0  0  0  0  0  0  0  0  0  0  0
   24.2474   31.2754   48.9228 N   0  0  0  0  0  0  0  0  0  0  0  0
   24.9826   31.7341   47.6405 C   0  0  0  0  0  0  0  0  0  0  0  0
   25.3999   30.4887   46.8374 C   0  0  0  0  0  0  0  0  0  0  0  0
   24.2725   29.6655   46.5504 O   0  0  0  0  0  0  0  0  0  0  0  0
   23.5838   29.1848   47.7005 C   0  0  0  0  0  0  0  0  0  0  0  0
   23.0596   30.3553   48.5561 C   0  0  0  0  0  0  0  0  0  0  0  0
   21.8149   32.6843   56.3986 C   0  0  0  0  0  0  0  0  0  0  0  0
   20.2116   29.4040   58.8272 C   0  0  0  0  0  0  0  0  0  0  0  0
   20.6467   29.5340   59.9745 O   0  0  0  0  0  0  0  0  0  0  0  0
   19.8462   28.1043   58.2906 C   0  0  0  0  0  0  0  0  0  0  0  0
   19.3150   27.9488   57.0557 C   0  0  0  0  0  0  0  0  0  0  0  0
   16.7228   28.6247   51.3638 H   0  0  0  0  0  0  0  0  0  0  0  0
   18.3289   26.7384   54.8198 H   0  0  0  0  0  0  0  0  0  0  0  0
   18.4373   31.0512   54.4133 H   0  0  0  0  0  0  0  0  0  0  0  0
   20.3352   31.9552   59.3633 H   0  0  0  0  0  0  0  0  0  0  0  0
   19.5785   32.4740   57.9083 H   0  0  0  0  0  0  0  0  0  0  0  0
   22.7680   31.9276   59.5733 H   0  0  0  0  0  0  0  0  0  0  0  0
   24.9369   32.7045   58.6794 H   0  0  0  0  0  0  0  0  0  0  0  0
   25.1406   33.4331   56.3730 H   0  0  0  0  0  0  0  0  0  0  0  0
   22.1815   33.4019   54.0390 H   0  0  0  0  0  0  0  0  0  0  0  0
   25.4474   34.8305   51.7432 H   0  0  0  0  0  0  0  0  0  0  0  0
   24.0329   35.0555   50.7548 H   0  0  0  0  0  0  0  0  0  0  0  0
   25.4479   32.3780   51.1334 H   0  0  0  0  0  0  0  0  0  0  0  0
   25.7125   33.4630   49.7972 H   0  0  0  0  0  0  0  0  0  0  0  0
   23.2443   33.1592   49.1097 H   0  0  0  0  0  0  0  0  0  0  0  0
   23.0627   32.0705   50.5030 H   0  0  0  0  0  0  0  0  0  0  0  0
   25.8476   32.3258   47.9311 H   0  0  0  0  0  0  0  0  0  0  0  0
   24.2873   32.3578   47.0764 H   0  0  0  0  0  0  0  0  0  0  0  0
   26.1483   29.9176   47.3875 H   0  0  0  0  0  0  0  0  0  0  0  0
   25.8649   30.7828   45.8963 H   0  0  0  0  0  0  0  0  0  0  0  0
   24.2465   28.5388   48.2809 H   0  0  0  0  0  0  0  0  0  0  0  0
   22.7528   28.5585   47.3733 H   0  0  0  0  0  0  0  0  0  0  0  0
   22.5999   30.0141   49.4822 H   0  0  0  0  0  0  0  0  0  0  0  0
   22.3468   30.9683   48.0008 H   0  0  0  0  0  0  0  0  0  0  0  0
   20.9378   32.6688   55.7673 H   0  0  0  0  0  0  0  0  0  0  0  0
   20.0003   27.2406   58.9192 H   0  0  0  0  0  0  0  0  0  0  0  0
   19.0693   26.9394   56.7608 H   0  0  0  0  0  0  0  0  0  0  0  0
   24.8973   30.7375   49.4781 H   0  0  0  0  0  0  0  0  0  0  0  0
  1  2  1  0
  2  3  2  0
  2  8  1  0
  3  4  1  0
  3 36  1  0
  4  5  1  0
  4  6  2  0
  6  7  1  0
  6 37  1  0
  7  8  2  0
  7  9  1  0
  8 38  1  0
  9 10  2  0
  9 35  1  0
 10 11  1  0
 11 12  1  0
 11 32  1  0
 12 13  1  0
 12 39  1  0
 12 40  1  0
 13 14  2  0
 13 31  1  0
 14 15  1  0
 14 41  1  0
 15 16  2  0
 15 42  1  0
 16 17  1  0
 16 43  1  0
 17 18  1  0
 17 31  2  0
 18 19  1  0
 18 44  1  0
 19 20  2  0
 19 21  1  0
 21 22  1  0
 22 23  1  0
 22 45  1  0
 22 46  1  0
 23 24  1  0
 23 47  1  0
 23 48  1  0
 24 25  1  0
 24 49  1  0
 24 50  1  0
 25 26  1  0
 25 30  1  0
 25 62  1  0
 26 27  1  0
 26 51  1  0
 26 52  1  0
 27 28  1  0
 27 53  1  0
 27 54  1  0
 28 29  1  0
 29 30  1  0
 29 55  1  0
 29 56  1  0
 30 57  1  0
 30 58  1  0
 31 59  1  0
 32 33  2  0
 32 34  1  0
 34 35  2  0
 34 60  1  0
 35 61  1  0
M  CHG  1  25   1
M  END
>  <s_user_Name>  (14) 
CHEMBL3402765_11-charged-pKa-8.1

>  <IC50[nM]>  (14) 
11

>  <atom.dprop.PartialCharge>  (14) 
-0.1323633 0.1634147 -0.19220558 0.1634147 -0.1323633 -0.16185945 -0.07552442 -0.16185945 0.35945877 -0.3730829 -0.17583418 0.14485535 -0.07682271 -0.11332083 -0.116153516 -0.12456909 0.08125044 -0.45109752 0.75066465 -0.55925333 -0.46771833 0.16217746 -0.13430358 0.118506856 -0.6796956 0.07367937 0.092855245 -0.36250812 0.092855245 0.07367937 -0.15695862 0.65629876 -0.6118529 -0.21557488 -0.13972917 0.17021748 0.16009094 0.16009094 0.08692813 0.08692813 0.14840671 0.14138284 0.1603674 0.33883035 0.06747404 0.06747404 0.075121224 0.075121224 0.104107544 0.104107544 0.111429416 0.111429416 0.09601355 0.09601355 0.09601355 0.09601355 0.111429416 0.111429416 0.13297805 0.1683741 0.16139361 0.442373

>  <experimental dG reference units>  (14) 
nM

>  <experimental dG reference field>  (14) 
IC50[nM]

>  <kJ/mol experimental dG>  (14) 
-45.70994970561652

>  <kcal/mol experimental dG>  (14) 
-10.924940178206626

$$$$
CHEMBL3402762_1
     RDKit          3D

 66 70  0  0  0  0  0  0  0  0999 V2000
   25.2972   29.3647   46.7015 C   0  0  0  0  0  0  0  0  0  0  0  0
   25.0472   30.5455   47.6646 N   0  0  2  0  0  0  0  0  0  0  0  0
   23.6340   30.4434   48.2818 C   0  0  0  0  0  0  0  0  0  0  0  0
   23.4401   31.5920   49.2829 C   0  0  0  0  0  0  0  0  0  0  0  0
   23.6806   32.9771   48.6432 C   0  0  1  0  0  0  0  0  0  0  0  0
   23.5016   34.1241   49.6598 C   0  0  0  0  0  0  0  0  0  0  0  0
   24.4712   34.0336   50.7092 O   0  0  0  0  0  0  0  0  0  0  0  0
   24.0941   33.7587   52.0109 C   0  0  0  0  0  0  0  0  0  0  0  0
   25.0463   33.9328   53.0156 C   0  0  0  0  0  0  0  0  0  0  0  0
   24.7792   33.7416   54.3338 N   0  0  0  0  0  0  0  0  0  0  0  0
   23.5184   33.3355   54.6583 C   0  0  0  0  0  0  0  0  0  0  0  0
   22.5278   33.1163   53.7486 N   0  0  0  0  0  0  0  0  0  0  0  0
   22.8299   33.3247   52.4399 C   0  0  0  0  0  0  0  0  0  0  0  0
   23.2238   33.0313   56.1029 C   0  0  0  0  0  0  0  0  0  0  0  0
   24.2415   33.0442   57.0710 C   0  0  0  0  0  0  0  0  0  0  0  0
   23.9955   32.6644   58.3898 C   0  0  0  0  0  0  0  0  0  0  0  0
   22.7234   32.2550   58.7744 C   0  0  0  0  0  0  0  0  0  0  0  0
   21.6814   32.2510   57.8432 C   0  0  0  0  0  0  0  0  0  0  0  0
   20.2776   31.8222   58.2633 C   0  0  0  0  0  0  0  0  0  0  0  0
   19.9596   30.4283   57.9055 N   0  0  0  0  0  0  0  0  0  0  0  0
   19.5057   30.2203   56.5990 N   0  0  0  0  0  0  0  0  0  0  0  0
   19.2468   29.0387   56.1349 C   0  0  0  0  0  0  0  0  0  0  0  0
   19.4363   27.9257   57.0492 C   0  0  0  0  0  0  0  0  0  0  0  0
   19.8875   28.1176   58.3104 C   0  0  0  0  0  0  0  0  0  0  0  0
   20.2068   29.4347   58.8316 C   0  0  0  0  0  0  0  0  0  0  0  0
   20.6455   29.5966   59.9728 O   0  0  0  0  0  0  0  0  0  0  0  0
   18.7906   28.8114   54.7456 C   0  0  0  0  0  0  0  0  0  0  0  0
   19.1078   29.7541   53.7518 C   0  0  0  0  0  0  0  0  0  0  0  0
   18.7040   29.5653   52.4326 C   0  0  0  0  0  0  0  0  0  0  0  0
   17.9727   28.4346   52.0806 C   0  0  0  0  0  0  0  0  0  0  0  0
   17.6452   27.4857   53.0540 C   0  0  0  0  0  0  0  0  0  0  0  0
   18.0626   27.6673   54.3751 C   0  0  0  0  0  0  0  0  0  0  0  0
   16.8662   26.3141   52.6780 C   0  0  0  0  0  0  0  0  0  0  0  0
   16.2469   25.3833   52.3771 N   0  0  0  0  0  0  0  0  0  0  0  0
   21.9323   32.6609   56.5280 C   0  0  0  0  0  0  0  0  0  0  0  0
   25.0622   33.0303   47.9539 C   0  0  0  0  0  0  0  0  0  0  0  0
   25.2640   31.8925   46.9387 C   0  0  0  0  0  0  0  0  0  0  0  0
   25.1789   28.4422   47.2750 H   0  0  0  0  0  0  0  0  0  0  0  0
   26.3189   29.4533   46.3281 H   0  0  0  0  0  0  0  0  0  0  0  0
   24.5692   29.4223   45.8884 H   0  0  0  0  0  0  0  0  0  0  0  0
   22.9124   30.4809   47.4607 H   0  0  0  0  0  0  0  0  0  0  0  0
   23.5641   29.4777   48.7758 H   0  0  0  0  0  0  0  0  0  0  0  0
   24.1182   31.4437   50.1259 H   0  0  0  0  0  0  0  0  0  0  0  0
   22.4311   31.5422   49.6918 H   0  0  0  0  0  0  0  0  0  0  0  0
   22.9233   33.1220   47.8691 H   0  0  0  0  0  0  0  0  0  0  0  0
   23.6730   35.0747   49.1549 H   0  0  0  0  0  0  0  0  0  0  0  0
   22.4649   34.1812   49.9843 H   0  0  0  0  0  0  0  0  0  0  0  0
   26.0449   34.2630   52.7644 H   0  0  0  0  0  0  0  0  0  0  0  0
   22.0200   33.1298   51.7544 H   0  0  0  0  0  0  0  0  0  0  0  0
   25.2505   33.3245   56.8032 H   0  0  0  0  0  0  0  0  0  0  0  0
   24.8048   32.6723   59.1083 H   0  0  0  0  0  0  0  0  0  0  0  0
   22.5475   31.9264   59.7879 H   0  0  0  0  0  0  0  0  0  0  0  0
   20.1415   32.0069   59.3313 H   0  0  0  0  0  0  0  0  0  0  0  0
   19.5506   32.4823   57.7863 H   0  0  0  0  0  0  0  0  0  0  0  0
   19.2477   26.9076   56.7408 H   0  0  0  0  0  0  0  0  0  0  0  0
   20.0324   27.2661   58.9593 H   0  0  0  0  0  0  0  0  0  0  0  0
   19.6758   30.6403   53.9934 H   0  0  0  0  0  0  0  0  0  0  0  0
   18.9589   30.2997   51.6786 H   0  0  0  0  0  0  0  0  0  0  0  0
   17.6668   28.3038   51.0519 H   0  0  0  0  0  0  0  0  0  0  0  0
   17.7985   26.9210   55.1130 H   0  0  0  0  0  0  0  0  0  0  0  0
   21.1162   32.6438   55.8207 H   0  0  0  0  0  0  0  0  0  0  0  0
   25.8511   32.9816   48.7062 H   0  0  0  0  0  0  0  0  0  0  0  0
   25.1907   33.9891   47.4494 H   0  0  0  0  0  0  0  0  0  0  0  0
   24.5527   31.9411   46.1113 H   0  0  0  0  0  0  0  0  0  0  0  0
   26.2809   31.8898   46.5439 H   0  0  0  0  0  0  0  0  0  0  0  0
   25.7364   30.5092   48.4103 H   0  0  0  0  0  0  0  0  0  0  0  0
  1  2  1  0
  1 38  1  0
  1 39  1  0
  1 40  1  0
  2  3  1  0
  2 37  1  0
  2 66  1  1
  3  4  1  0
  3 41  1  0
  3 42  1  0
  4  5  1  0
  4 43  1  0
  4 44  1  0
  5  6  1  0
  5 36  1  0
  5 45  1  6
  6  7  1  0
  6 46  1  0
  6 47  1  0
  7  8  1  0
  8  9  2  0
  8 13  1  0
  9 10  1  0
  9 48  1  0
 10 11  2  0
 11 12  1  0
 11 14  1  0
 12 13  2  0
 13 49  1  0
 14 15  2  0
 14 35  1  0
 15 16  1  0
 15 50  1  0
 16 17  2  0
 16 51  1  0
 17 18  1  0
 17 52  1  0
 18 19  1  0
 18 35  2  0
 19 20  1  0
 19 53  1  0
 19 54  1  0
 20 21  1  0
 20 25  1  0
 21 22  2  0
 22 23  1  0
 22 27  1  0
 23 24  2  0
 23 55  1  0
 24 25  1  0
 24 56  1  0
 25 26  2  0
 27 28  2  0
 27 32  1  0
 28 29  1  0
 28 57  1  0
 29 30  2  0
 29 58  1  0
 30 31  1  0
 30 59  1  0
 31 32  2  0
 31 33  1  0
 32 60  1  0
 33 34  3  0
 35 61  1  0
 36 37  1  0
 36 62  1  0
 36 63  1  0
 37 64  1  0
 37 65  1  0
M  CHG  1   2   1
M  END
>  <s_user_Name>  (15) 
CHEMBL3402762_1

>  <IC50[nM]>  (15) 
1

>  <atom.dprop.PartialCharge>  (15) 
0.07930525 -0.68687844 0.110984236 -0.0963442 -0.08460137 0.12590155 -0.33114034 -0.10554166 0.39059755 -0.62203354 0.6404996 -0.62203354 0.39059755 -0.15681522 -0.097211115 -0.12836502 -0.09567089 -0.10386951 0.14702828 -0.17499943 -0.37733072 0.37291086 -0.14225805 -0.21685341 0.6555657 -0.6128187 -0.13521372 -0.085560985 -0.13767686 -0.07529424 -0.014992777 -0.07094395 0.24104817 -0.35942346 -0.08671666 -0.0963442 0.110984236 0.10227874 0.10227874 0.10227874 0.10089885 0.10089885 0.085554294 0.085554294 0.088379346 0.05227296 0.05227296 0.04309526 0.04309526 0.14382918 0.13979605 0.14835742 0.085867174 0.085867174 0.16087298 0.16740838 0.14426747 0.14801103 0.15030506 0.1512513 0.1465967 0.085554294 0.085554294 0.10089885 0.10089885 0.44731462

>  <experimental dG reference units>  (15) 
nM

>  <experimental dG reference field>  (15) 
IC50[nM]

>  <kJ/mol experimental dG>  (15) 
-51.6911478448447

>  <kcal/mol experimental dG>  (15) 
-12.354480842458102

$$$$
CHEMBL3402742_23
     RDKit          3D

 57 59  0  0  0  0  0  0  0  0999 V2000
   24.0986   34.7063   49.0484 C   0  0  0  0  0  0  0  0  0  0  0  0
   24.6432   33.2826   48.7886 N   0  0  0  0  0  0  0  0  0  0  0  0
   25.8543   33.3451   47.8288 C   0  0  0  0  0  0  0  0  0  0  0  0
   25.0189   32.4927   50.0695 C   0  0  0  0  0  0  0  0  0  0  0  0
   23.8157   32.1161   50.9601 C   0  0  0  0  0  0  0  0  0  0  0  0
   23.1879   33.2288   51.8121 C   0  0  0  0  0  0  0  0  0  0  0  0
   24.2114   33.9262   52.5318 O   0  0  0  0  0  0  0  0  0  0  0  0
   24.4007   33.9085   53.8846 C   0  0  0  0  0  0  0  0  0  0  0  0
   25.4467   34.3262   54.3754 O   0  0  0  0  0  0  0  0  0  0  0  0
   23.2923   33.4328   54.5845 N   0  0  0  0  0  0  0  0  0  0  0  0
   23.1560   33.1247   55.9447 C   0  0  0  0  0  0  0  0  0  0  0  0
   24.2128   33.1260   56.8689 C   0  0  0  0  0  0  0  0  0  0  0  0
   23.9896   32.7237   58.1852 C   0  0  0  0  0  0  0  0  0  0  0  0
   22.7192   32.3122   58.5862 C   0  0  0  0  0  0  0  0  0  0  0  0
   21.6582   32.3108   57.6778 C   0  0  0  0  0  0  0  0  0  0  0  0
   20.2579   31.8951   58.1203 C   0  0  0  0  0  0  0  0  0  0  0  0
   19.9237   30.4965   57.7849 N   0  0  0  0  0  0  0  0  0  0  0  0
   19.4310   30.2906   56.5316 N   0  0  0  0  0  0  0  0  0  0  0  0
   19.0502   29.1758   56.0241 C   0  0  0  0  0  0  0  0  0  0  0  0
   19.2185   27.8061   56.7105 C   0  0  0  0  0  0  0  0  0  0  0  0
   19.9746   27.7611   58.3757 S   0  0  0  0  0  0  0  0  0  0  0  0
   20.2175   29.5288   58.7582 C   0  0  0  0  0  0  0  0  0  0  0  0
   20.6471   29.7895   59.8854 O   0  0  0  0  0  0  0  0  0  0  0  0
   18.3886   29.1760   54.6905 C   0  0  0  0  0  0  0  0  0  0  0  0
   18.2431   27.9972   53.9358 C   0  0  0  0  0  0  0  0  0  0  0  0
   17.5693   28.0071   52.7145 C   0  0  0  0  0  0  0  0  0  0  0  0
   17.4239   26.8610   52.0143 F   0  0  0  0  0  0  0  0  0  0  0  0
   17.0348   29.1930   52.2188 C   0  0  0  0  0  0  0  0  0  0  0  0
   17.1737   30.3718   52.9443 C   0  0  0  0  0  0  0  0  0  0  0  0
   16.6469   31.5248   52.4740 F   0  0  0  0  0  0  0  0  0  0  0  0
   17.8471   30.3641   54.1637 C   0  0  0  0  0  0  0  0  0  0  0  0
   21.8822   32.7264   56.3625 C   0  0  0  0  0  0  0  0  0  0  0  0
   23.0449   34.6088   49.3014 H   0  0  0  0  0  0  0  0  0  0  0  0
   24.1862   35.2925   48.1323 H   0  0  0  0  0  0  0  0  0  0  0  0
   24.6791   35.1545   49.8572 H   0  0  0  0  0  0  0  0  0  0  0  0
   26.1448   32.3237   47.5759 H   0  0  0  0  0  0  0  0  0  0  0  0
   26.6631   33.8707   48.3419 H   0  0  0  0  0  0  0  0  0  0  0  0
   25.5459   33.8749   46.9260 H   0  0  0  0  0  0  0  0  0  0  0  0
   25.4471   31.5649   49.6903 H   0  0  0  0  0  0  0  0  0  0  0  0
   25.7990   33.0494   50.5947 H   0  0  0  0  0  0  0  0  0  0  0  0
   23.0435   31.6278   50.3649 H   0  0  0  0  0  0  0  0  0  0  0  0
   24.1756   31.3658   51.6605 H   0  0  0  0  0  0  0  0  0  0  0  0
   22.6454   33.9289   51.1891 H   0  0  0  0  0  0  0  0  0  0  0  0
   22.4243   32.7875   52.4523 H   0  0  0  0  0  0  0  0  0  0  0  0
   22.4656   33.2745   54.0316 H   0  0  0  0  0  0  0  0  0  0  0  0
   25.2150   33.4159   56.5938 H   0  0  0  0  0  0  0  0  0  0  0  0
   24.8092   32.7233   58.8896 H   0  0  0  0  0  0  0  0  0  0  0  0
   22.5614   31.9838   59.6014 H   0  0  0  0  0  0  0  0  0  0  0  0
   20.1211   32.1147   59.1822 H   0  0  0  0  0  0  0  0  0  0  0  0
   19.5349   32.5541   57.6362 H   0  0  0  0  0  0  0  0  0  0  0  0
   19.8520   27.1631   56.0983 H   0  0  0  0  0  0  0  0  0  0  0  0
   18.2473   27.3171   56.7973 H   0  0  0  0  0  0  0  0  0  0  0  0
   18.6283   27.0467   54.2749 H   0  0  0  0  0  0  0  0  0  0  0  0
   16.5075   29.1938   51.2769 H   0  0  0  0  0  0  0  0  0  0  0  0
   17.9220   31.2953   54.7066 H   0  0  0  0  0  0  0  0  0  0  0  0
   21.0593   32.7116   55.6611 H   0  0  0  0  0  0  0  0  0  0  0  0
   23.9191   32.7591   48.3116 H   0  0  0  0  0  0  0  0  0  0  0  0
  1  2  1  0
  1 33  1  0
  1 34  1  0
  1 35  1  0
  2  3  1  0
  2  4  1  0
  2 57  1  0
  3 36  1  0
  3 37  1  0
  3 38  1  0
  4  5  1  0
  4 39  1  0
  4 40  1  0
  5  6  1  0
  5 41  1  0
  5 42  1  0
  6  7  1  0
  6 43  1  0
  6 44  1  0
  7  8  1  0
  8  9  2  0
  8 10  1  0
 10 11  1  0
 10 45  1  0
 11 12  2  0
 11 32  1  0
 12 13  1  0
 12 46  1  0
 13 14  2  0
 13 47  1  0
 14 15  1  0
 14 48  1  0
 15 16  1  0
 15 32  2  0
 16 17  1  0
 16 49  1  0
 16 50  1  0
 17 18  1  0
 17 22  1  0
 18 19  2  0
 19 20  1  0
 19 24  1  0
 20 21  1  0
 20 51  1  0
 20 52  1  0
 21 22  1  0
 22 23  2  0
 24 25  2  0
 24 31  1  0
 25 26  1  0
 25 53  1  0
 26 27  1  0
 26 28  2  0
 28 29  1  0
 28 54  1  0
 29 30  1  0
 29 31  2  0
 31 55  1  0
 32 56  1  0
M  CHG  1   2   1
M  END
>  <s_user_Name>  (16) 
CHEMBL3402742_23

>  <IC50[nM]>  (16) 
23

>  <atom.dprop.PartialCharge>  (16) 
0.07883126 -0.6819321 0.07883126 0.10956264 -0.12814036 0.15610081 -0.46553662 0.74915653 -0.55919015 -0.45087367 0.082835026 -0.124512345 -0.11320941 -0.11330822 -0.0797113 0.14331022 -0.210726 -0.38769087 0.35438538 -0.10464527 -0.13925503 0.66196066 -0.57096434 -0.07708746 -0.15991211 0.1576106 -0.12841769 -0.18637615 0.1576106 -0.12841769 -0.15991211 -0.15533842 0.10594176 0.10594176 0.10594176 0.10594176 0.10594176 0.10594176 0.10817048 0.10817048 0.07929994 0.07929994 0.06867406 0.06867406 0.3388871 0.16042416 0.1414396 0.14679968 0.088602155 0.088602155 0.105448246 0.105448246 0.15893064 0.171013 0.15893064 0.13307384 0.4494231

>  <experimental dG reference units>  (16) 
nM

>  <experimental dG reference field>  (16) 
IC50[nM]

>  <kJ/mol experimental dG>  (16) 
-43.87011730084183

>  <kcal/mol experimental dG>  (16) 
-10.485209679933515

$$$$
CHEMBL3402754_40
     RDKit          3D

 45 48  0  0  0  0  0  0  0  0999 V2000
   24.6590   34.1762   50.5924 C   0  0  0  0  0  0  0  0  0  0  0  0
   24.2746   33.9253   52.0374 C   0  0  0  0  0  0  0  0  0  0  0  0
   25.1740   34.1478   53.0785 C   0  0  0  0  0  0  0  0  0  0  0  0
   24.8532   33.9262   54.3784 N   0  0  0  0  0  0  0  0  0  0  0  0
   23.5930   33.4702   54.6400 C   0  0  0  0  0  0  0  0  0  0  0  0
   22.6476   33.2371   53.6867 N   0  0  0  0  0  0  0  0  0  0  0  0
   23.0058   33.4672   52.3948 C   0  0  0  0  0  0  0  0  0  0  0  0
   23.2543   33.1190   56.0657 C   0  0  0  0  0  0  0  0  0  0  0  0
   24.2471   33.1094   57.0597 C   0  0  0  0  0  0  0  0  0  0  0  0
   23.9733   32.6953   58.3618 C   0  0  0  0  0  0  0  0  0  0  0  0
   22.6941   32.2720   58.7023 C   0  0  0  0  0  0  0  0  0  0  0  0
   21.6732   32.2882   57.7495 C   0  0  0  0  0  0  0  0  0  0  0  0
   20.2574   31.8714   58.1483 C   0  0  0  0  0  0  0  0  0  0  0  0
   19.9320   30.4722   57.8106 N   0  0  0  0  0  0  0  0  0  0  0  0
   19.3972   30.2588   56.5379 N   0  0  0  0  0  0  0  0  0  0  0  0
   19.0692   29.0834   56.0994 C   0  0  0  0  0  0  0  0  0  0  0  0
   19.3270   27.9712   57.0049 C   0  0  0  0  0  0  0  0  0  0  0  0
   19.8506   28.1673   58.2382 C   0  0  0  0  0  0  0  0  0  0  0  0
   20.1920   29.4850   58.7426 C   0  0  0  0  0  0  0  0  0  0  0  0
   20.6445   29.6519   59.8792 O   0  0  0  0  0  0  0  0  0  0  0  0
   18.4743   28.8707   54.7531 C   0  0  0  0  0  0  0  0  0  0  0  0
   18.0358   27.6132   54.3055 C   0  0  0  0  0  0  0  0  0  0  0  0
   17.4494   27.4603   53.0498 C   0  0  0  0  0  0  0  0  0  0  0  0
   17.0192   26.2455   52.6483 F   0  0  0  0  0  0  0  0  0  0  0  0
   17.2973   28.5621   52.2108 C   0  0  0  0  0  0  0  0  0  0  0  0
   17.7324   29.8153   52.6298 C   0  0  0  0  0  0  0  0  0  0  0  0
   17.5797   30.8932   51.8228 F   0  0  0  0  0  0  0  0  0  0  0  0
   18.3167   29.9673   53.8856 C   0  0  0  0  0  0  0  0  0  0  0  0
   21.9564   32.7247   56.4484 C   0  0  0  0  0  0  0  0  0  0  0  0
   24.1190   33.5086   49.9195 H   0  0  0  0  0  0  0  0  0  0  0  0
   25.7260   34.0116   50.4396 H   0  0  0  0  0  0  0  0  0  0  0  0
   24.4303   35.2047   50.3131 H   0  0  0  0  0  0  0  0  0  0  0  0
   26.1753   34.5025   52.8776 H   0  0  0  0  0  0  0  0  0  0  0  0
   22.2484   33.2806   51.6443 H   0  0  0  0  0  0  0  0  0  0  0  0
   25.2609   33.4009   56.8192 H   0  0  0  0  0  0  0  0  0  0  0  0
   24.7626   32.6937   59.1005 H   0  0  0  0  0  0  0  0  0  0  0  0
   22.4923   31.9266   59.7076 H   0  0  0  0  0  0  0  0  0  0  0  0
   20.0950   32.0730   59.2091 H   0  0  0  0  0  0  0  0  0  0  0  0
   19.5442   32.5305   57.6458 H   0  0  0  0  0  0  0  0  0  0  0  0
   19.1172   26.9479   56.7312 H   0  0  0  0  0  0  0  0  0  0  0  0
   20.0395   27.3195   58.8782 H   0  0  0  0  0  0  0  0  0  0  0  0
   18.1211   26.7275   54.9114 H   0  0  0  0  0  0  0  0  0  0  0  0
   16.8419   28.4425   51.2385 H   0  0  0  0  0  0  0  0  0  0  0  0
   18.6407   30.9590   54.1723 H   0  0  0  0  0  0  0  0  0  0  0  0
   21.1592   32.7249   55.7179 H   0  0  0  0  0  0  0  0  0  0  0  0
  1  2  1  0
  1 30  1  0
  1 31  1  0
  1 32  1  0
  2  3  2  0
  2  7  1  0
  3  4  1  0
  3 33  1  0
  4  5  2  0
  5  6  1  0
  5  8  1  0
  6  7  2  0
  7 34  1  0
  8  9  2  0
  8 29  1  0
  9 10  1  0
  9 35  1  0
 10 11  2  0
 10 36  1  0
 11 12  1  0
 11 37  1  0
 12 13  1  0
 12 29  2  0
 13 14  1  0
 13 38  1  0
 13 39  1  0
 14 15  1  0
 14 19  1  0
 15 16  2  0
 16 17  1  0
 16 21  1  0
 17 18  2  0
 17 40  1  0
 18 19  1  0
 18 41  1  0
 19 20  2  0
 21 22  2  0
 21 28  1  0
 22 23  1  0
 22 42  1  0
 23 24  1  0
 23 25  2  0
 25 26  1  0
 25 43  1  0
 26 27  1  0
 26 28  2  0
 28 44  1  0
 29 45  1  0
M  END
>  <s_user_Name>  (17) 
CHEMBL3402754_40

>  <IC50[nM]>  (17) 
40

>  <atom.dprop.PartialCharge>  (17) 
-0.04433367 -0.31338984 0.43512982 -0.65054226 0.66182476 -0.65054226 0.43512982 -0.17925929 -0.09389028 -0.13057697 -0.0978827 -0.106081456 0.14481641 -0.17702392 -0.3757293 0.35628164 -0.14290681 -0.2187526 0.6533535 -0.6150309 -0.07870205 -0.16503699 0.1602373 -0.1355412 -0.1953833 0.1602373 -0.1355412 -0.16503699 -0.08446249 0.050090924 0.050090924 0.050090924 0.028521586 0.028521586 0.14161718 0.13758403 0.14614546 0.08365506 0.08365506 0.1582159 0.16519634 0.15691319 0.16703974 0.15691319 0.14438471

>  <experimental dG reference units>  (17) 
nM

>  <experimental dG reference field>  (17) 
IC50[nM]

>  <kJ/mol experimental dG>  (17) 
-42.489778970617564

>  <kcal/mol experimental dG>  (17) 
-10.155300901199226

$$$$
CHEMBL3402748_5300
     RDKit          3D

 44 47  0  0  0  0  0  0  0  0999 V2000
   24.3564   33.6113   52.8448 C   0  0  0  0  0  0  0  0  0  0  0  0
   23.0183   33.4975   52.5099 C   0  0  0  0  0  0  0  0  0  0  0  0
   22.3767   33.2602   53.6894 N   0  0  0  0  0  0  0  0  0  0  0  0
   23.3432   33.2295   54.6627 C   0  0  0  0  0  0  0  0  0  0  0  0
   24.5366   33.4320   54.1451 N   0  0  0  0  0  0  0  0  0  0  0  0
   23.0804   32.9514   56.1082 C   0  0  0  0  0  0  0  0  0  0  0  0
   24.1299   32.9871   57.0396 C   0  0  0  0  0  0  0  0  0  0  0  0
   23.9111   32.6334   58.3678 C   0  0  0  0  0  0  0  0  0  0  0  0
   22.6434   32.2299   58.7760 C   0  0  0  0  0  0  0  0  0  0  0  0
   21.5787   32.2132   57.8761 C   0  0  0  0  0  0  0  0  0  0  0  0
   20.1881   31.7866   58.3387 C   0  0  0  0  0  0  0  0  0  0  0  0
   19.8602   30.4029   57.9603 N   0  0  0  0  0  0  0  0  0  0  0  0
   19.3499   30.2301   56.6724 N   0  0  0  0  0  0  0  0  0  0  0  0
   19.0474   29.0660   56.1901 C   0  0  0  0  0  0  0  0  0  0  0  0
   19.3238   27.9262   57.0522 C   0  0  0  0  0  0  0  0  0  0  0  0
   19.8480   28.0844   58.2899 C   0  0  0  0  0  0  0  0  0  0  0  0
   20.1660   29.3879   58.8437 C   0  0  0  0  0  0  0  0  0  0  0  0
   20.6457   29.5266   59.9726 O   0  0  0  0  0  0  0  0  0  0  0  0
   18.4259   28.8961   54.8518 C   0  0  0  0  0  0  0  0  0  0  0  0
   18.2460   27.6349   54.2566 C   0  0  0  0  0  0  0  0  0  0  0  0
   17.5752   27.5079   53.0404 C   0  0  0  0  0  0  0  0  0  0  0  0
   17.3791   26.2837   52.5028 F   0  0  0  0  0  0  0  0  0  0  0  0
   17.0894   28.6363   52.3852 C   0  0  0  0  0  0  0  0  0  0  0  0
   17.2733   29.8953   52.9468 C   0  0  0  0  0  0  0  0  0  0  0  0
   16.7952   30.9967   52.3254 F   0  0  0  0  0  0  0  0  0  0  0  0
   17.9353   30.0226   54.1664 C   0  0  0  0  0  0  0  0  0  0  0  0
   21.8002   32.5881   56.5482 C   0  0  0  0  0  0  0  0  0  0  0  0
   22.2516   33.6272   51.1806 C   0  0  0  0  0  0  0  0  0  0  0  0
   21.3852   33.1297   53.8181 H   0  0  0  0  0  0  0  0  0  0  0  0
   25.1266   33.2707   56.7329 H   0  0  0  0  0  0  0  0  0  0  0  0
   24.7309   32.6529   59.0725 H   0  0  0  0  0  0  0  0  0  0  0  0
   22.4875   31.9256   59.8004 H   0  0  0  0  0  0  0  0  0  0  0  0
   20.0883   31.9468   59.4152 H   0  0  0  0  0  0  0  0  0  0  0  0
   19.4496   32.4622   57.9040 H   0  0  0  0  0  0  0  0  0  0  0  0
   19.1182   26.9124   56.7412 H   0  0  0  0  0  0  0  0  0  0  0  0
   20.0418   27.2166   58.9026 H   0  0  0  0  0  0  0  0  0  0  0  0
   18.6020   26.7265   54.7163 H   0  0  0  0  0  0  0  0  0  0  0  0
   16.5637   28.5315   51.4477 H   0  0  0  0  0  0  0  0  0  0  0  0
   18.0368   31.0133   54.5841 H   0  0  0  0  0  0  0  0  0  0  0  0
   20.9726   32.5554   55.8558 H   0  0  0  0  0  0  0  0  0  0  0  0
   25.0887   33.8206   52.0791 H   0  0  0  0  0  0  0  0  0  0  0  0
   21.1887   33.4612   51.3559 H   0  0  0  0  0  0  0  0  0  0  0  0
   22.4001   34.6264   50.7710 H   0  0  0  0  0  0  0  0  0  0  0  0
   22.6227   32.8861   50.4728 H   0  0  0  0  0  0  0  0  0  0  0  0
  1  2  2  0
  1  5  1  0
  1 41  1  0
  2 28  1  0
  2  3  1  0
  3 29  1  0
  3  4  1  0
  4  6  1  0
  4  5  2  0
  6  7  2  0
  6 27  1  0
  7  8  1  0
  7 30  1  0
  8  9  2  0
  8 31  1  0
  9 10  1  0
  9 32  1  0
 10 11  1  0
 10 27  2  0
 11 12  1  0
 11 33  1  0
 11 34  1  0
 12 13  1  0
 12 17  1  0
 13 14  2  0
 14 15  1  0
 14 19  1  0
 15 16  2  0
 15 35  1  0
 16 17  1  0
 16 36  1  0
 17 18  2  0
 19 20  2  0
 19 26  1  0
 20 21  1  0
 20 37  1  0
 21 22  1  0
 21 23  2  0
 23 24  1  0
 23 38  1  0
 24 25  1  0
 24 26  2  0
 26 39  1  0
 27 40  1  0
 28 42  1  0
 28 43  1  0
 28 44  1  0
M  END
>  <s_user_Name>  (18) 
CHEMBL3402748_5300

>  <IC50[nM]>  (18) 
5300

>  <atom.dprop.PartialCharge>  (18) 
0.2975753 -0.19992541 -0.3107612 0.4475827 -0.64755243 -0.13527468 -0.09928176 -0.14025599 -0.09125192 -0.105278075 0.1465355 -0.17898235 -0.3762463 0.3557433 -0.14344524 -0.21929103 0.652838 -0.6155694 -0.07924047 -0.1655754 0.1596989 -0.13607965 -0.19592172 0.1596989 -0.13607965 -0.1655754 -0.0893132 -0.022398658 0.30018267 0.14458391 0.13659267 0.14630778 0.08352314 0.08352314 0.15767746 0.1646579 0.15637474 0.1665013 0.15637474 0.14787889 0.04171274 0.04924538 0.04924538 0.04924538

>  <experimental dG reference units>  (18) 
nM

>  <experimental dG reference field>  (18) 
IC50[nM]

>  <kJ/mol experimental dG>  (18) 
-30.300915112564486

>  <kcal/mol experimental dG>  (18) 
-7.242092522123443

$$$$
CHEMBL3402741_400
     RDKit          3D

 71 73  0  0  0  0  0  0  0  0999 V2000
   24.3934   31.0600   48.1947 C   0  0  0  0  0  0  0  0  0  0  0  0
   24.5318   32.4351   47.5178 C   0  0  0  0  0  0  0  0  0  0  0  0
   25.8474   33.1258   47.9679 N   0  0  0  0  0  0  0  0  0  0  0  0
   26.5614   33.7965   46.7640 C   0  0  0  0  0  0  0  0  0  0  0  0
   27.9647   34.3057   47.1323 C   0  0  0  0  0  0  0  0  0  0  0  0
   25.7058   34.0801   49.1798 C   0  0  0  0  0  0  0  0  0  0  0  0
   24.9918   33.4384   50.3755 C   0  0  0  0  0  0  0  0  0  0  0  0
   25.0659   34.3430   51.6089 C   0  0  0  0  0  0  0  0  0  0  0  0
   24.1175   33.9028   52.5724 O   0  0  0  0  0  0  0  0  0  0  0  0
   24.3859   33.9251   53.8856 C   0  0  0  0  0  0  0  0  0  0  0  0
   25.4468   34.3252   54.3755 O   0  0  0  0  0  0  0  0  0  0  0  0
   23.2712   33.4382   54.5535 N   0  0  0  0  0  0  0  0  0  0  0  0
   23.1060   33.1249   55.9113 C   0  0  0  0  0  0  0  0  0  0  0  0
   24.1478   33.1259   56.8531 C   0  0  0  0  0  0  0  0  0  0  0  0
   23.9046   32.7376   58.1696 C   0  0  0  0  0  0  0  0  0  0  0  0
   22.6221   32.3505   58.5593 C   0  0  0  0  0  0  0  0  0  0  0  0
   21.5763   32.3408   57.6345 C   0  0  0  0  0  0  0  0  0  0  0  0
   20.1645   31.9343   58.0656 C   0  0  0  0  0  0  0  0  0  0  0  0
   19.8549   30.5223   57.7688 N   0  0  0  0  0  0  0  0  0  0  0  0
   19.5510   30.2568   56.4647 N   0  0  0  0  0  0  0  0  0  0  0  0
   19.2595   29.1097   55.9735 C   0  0  0  0  0  0  0  0  0  0  0  0
   19.1563   27.8215   56.8125 C   0  0  0  0  0  0  0  0  0  0  0  0
   20.1073   27.8033   58.3756 S   0  0  0  0  0  0  0  0  0  0  0  0
   20.2026   29.5875   58.7616 C   0  0  0  0  0  0  0  0  0  0  0  0
   20.6464   29.8843   59.8760 O   0  0  0  0  0  0  0  0  0  0  0  0
   18.9915   28.9833   54.5231 C   0  0  0  0  0  0  0  0  0  0  0  0
   19.6332   29.8252   53.6061 C   0  0  0  0  0  0  0  0  0  0  0  0
   19.4012   29.7031   52.2393 C   0  0  0  0  0  0  0  0  0  0  0  0
   18.5163   28.7296   51.7479 C   0  0  0  0  0  0  0  0  0  0  0  0
   18.2446   28.5625   50.4000 O   0  0  0  0  0  0  0  0  0  0  0  0
   19.1055   29.1560   49.4367 C   0  0  0  0  0  0  0  0  0  0  0  0
   17.8607   27.8802   52.6511 C   0  0  0  0  0  0  0  0  0  0  0  0
   16.9971   26.9398   52.1194 O   0  0  0  0  0  0  0  0  0  0  0  0
   16.4627   25.9229   52.9609 C   0  0  0  0  0  0  0  0  0  0  0  0
   18.1083   28.0139   54.0302 C   0  0  0  0  0  0  0  0  0  0  0  0
   21.8257   32.7275   56.3134 C   0  0  0  0  0  0  0  0  0  0  0  0
   23.5731   30.4984   47.7502 H   0  0  0  0  0  0  0  0  0  0  0  0
   24.1797   31.1335   49.2598 H   0  0  0  0  0  0  0  0  0  0  0  0
   25.3026   30.4604   48.0820 H   0  0  0  0  0  0  0  0  0  0  0  0
   24.5871   32.2964   46.4354 H   0  0  0  0  0  0  0  0  0  0  0  0
   23.7064   33.1249   47.7224 H   0  0  0  0  0  0  0  0  0  0  0  0
   26.6370   33.0231   45.9988 H   0  0  0  0  0  0  0  0  0  0  0  0
   25.9021   34.5928   46.4106 H   0  0  0  0  0  0  0  0  0  0  0  0
   28.5048   34.6092   46.2369 H   0  0  0  0  0  0  0  0  0  0  0  0
   28.5529   33.5272   47.6204 H   0  0  0  0  0  0  0  0  0  0  0  0
   27.9289   35.1715   47.7906 H   0  0  0  0  0  0  0  0  0  0  0  0
   26.7289   34.3265   49.4695 H   0  0  0  0  0  0  0  0  0  0  0  0
   25.1999   34.9802   48.8207 H   0  0  0  0  0  0  0  0  0  0  0  0
   23.9440   33.2598   50.1306 H   0  0  0  0  0  0  0  0  0  0  0  0
   25.4418   32.4741   50.6173 H   0  0  0  0  0  0  0  0  0  0  0  0
   26.0877   34.3355   51.9943 H   0  0  0  0  0  0  0  0  0  0  0  0
   24.8319   35.3723   51.3382 H   0  0  0  0  0  0  0  0  0  0  0  0
   22.4685   33.2708   53.9673 H   0  0  0  0  0  0  0  0  0  0  0  0
   25.1545   33.4074   56.5882 H   0  0  0  0  0  0  0  0  0  0  0  0
   24.7114   32.7470   58.8868 H   0  0  0  0  0  0  0  0  0  0  0  0
   22.4449   32.0462   59.5784 H   0  0  0  0  0  0  0  0  0  0  0  0
   20.0051   32.1810   59.1196 H   0  0  0  0  0  0  0  0  0  0  0  0
   19.4401   32.5650   57.5477 H   0  0  0  0  0  0  0  0  0  0  0  0
   19.5363   26.9752   56.2387 H   0  0  0  0  0  0  0  0  0  0  0  0
   18.1120   27.6206   57.0577 H   0  0  0  0  0  0  0  0  0  0  0  0
   20.3227   30.5828   53.9471 H   0  0  0  0  0  0  0  0  0  0  0  0
   19.9142   30.3790   51.5732 H   0  0  0  0  0  0  0  0  0  0  0  0
   18.8121   28.8229   48.4420 H   0  0  0  0  0  0  0  0  0  0  0  0
   20.1452   28.8590   49.5904 H   0  0  0  0  0  0  0  0  0  0  0  0
   19.0323   30.2450   49.4516 H   0  0  0  0  0  0  0  0  0  0  0  0
   15.8022   26.3401   53.7205 H   0  0  0  0  0  0  0  0  0  0  0  0
   17.2616   25.3568   53.4427 H   0  0  0  0  0  0  0  0  0  0  0  0
   15.8754   25.2286   52.3598 H   0  0  0  0  0  0  0  0  0  0  0  0
   17.6031   27.3567   54.7209 H   0  0  0  0  0  0  0  0  0  0  0  0
   21.0158   32.7074   55.5985 H   0  0  0  0  0  0  0  0  0  0  0  0
   26.4631   32.3739   48.2748 H   0  0  0  0  0  0  0  0  0  0  0  0
  1  2  1  0
  1 37  1  0
  1 38  1  0
  1 39  1  0
  2  3  1  0
  2 40  1  0
  2 41  1  0
  3  4  1  0
  3  6  1  0
  3 71  1  0
  4  5  1  0
  4 42  1  0
  4 43  1  0
  5 44  1  0
  5 45  1  0
  5 46  1  0
  6  7  1  0
  6 47  1  0
  6 48  1  0
  7  8  1  0
  7 49  1  0
  7 50  1  0
  8  9  1  0
  8 51  1  0
  8 52  1  0
  9 10  1  0
 10 11  2  0
 10 12  1  0
 12 13  1  0
 12 53  1  0
 13 14  2  0
 13 36  1  0
 14 15  1  0
 14 54  1  0
 15 16  2  0
 15 55  1  0
 16 17  1  0
 16 56  1  0
 17 18  1  0
 17 36  2  0
 18 19  1  0
 18 57  1  0
 18 58  1  0
 19 20  1  0
 19 24  1  0
 20 21  2  0
 21 22  1  0
 21 26  1  0
 22 23  1  0
 22 59  1  0
 22 60  1  0
 23 24  1  0
 24 25  2  0
 26 27  2  0
 26 35  1  0
 27 28  1  0
 27 61  1  0
 28 29  2  0
 28 62  1  0
 29 30  1  0
 29 32  1  0
 30 31  1  0
 31 63  1  0
 31 64  1  0
 31 65  1  0
 32 33  1  0
 32 35  2  0
 33 34  1  0
 34 66  1  0
 34 67  1  0
 34 68  1  0
 35 69  1  0
 36 70  1  0
M  CHG  1   3   1
M  END
>  <s_user_Name>  (19) 
CHEMBL3402741_400

>  <IC50[nM]>  (19) 
400

>  <atom.dprop.PartialCharge>  (19) 
-0.1351725 0.104583055 -0.68279374 0.104583055 -0.1351725 0.11350794 -0.1287692 0.15478401 -0.46619964 0.7486893 -0.55965734 -0.45134097 0.082367904 -0.124979496 -0.11367656 -0.11377536 -0.08017847 0.14284307 -0.2125701 -0.39337644 0.36009488 -0.10678646 -0.14210252 0.6614934 -0.5714316 -0.13474269 -0.08624345 -0.1703563 0.11842497 -0.31637505 0.12029235 0.072781876 -0.32559022 0.11774269 -0.10570181 -0.15580559 0.07416627 0.07416627 0.07416627 0.101155825 0.101155825 0.101155825 0.101155825 0.07416627 0.07416627 0.07416627 0.10161361 0.10161361 0.07884868 0.07884868 0.06761291 0.06761291 0.33841997 0.15995699 0.14097244 0.14633252 0.08813496 0.08813496 0.1038327 0.1038327 0.13894865 0.14924239 0.048243154 0.048243154 0.048243154 0.046643756 0.046643756 0.046643756 0.15035138 0.13260667 0.43941075

>  <experimental dG reference units>  (19) 
nM

>  <experimental dG reference field>  (19) 
IC50[nM]

>  <kJ/mol experimental dG>  (19) 
-36.746318098968146

>  <kcal/mol experimental dG>  (19) 
-8.782580807592769

$$$$
CHEMBL3402763_90
     RDKit          3D

 63 65  0  0  0  0  0  0  0  0999 V2000
   24.4727   31.0016   48.0036 C   0  0  0  0  0  0  0  0  0  0  0  0
   24.5300   32.4421   47.4625 C   0  0  0  0  0  0  0  0  0  0  0  0
   25.8471   33.1263   47.9174 N   0  0  0  0  0  0  0  0  0  0  0  0
   26.5582   33.8236   46.7267 C   0  0  0  0  0  0  0  0  0  0  0  0
   27.9680   34.3135   47.0983 C   0  0  0  0  0  0  0  0  0  0  0  0
   25.7037   34.0574   49.1505 C   0  0  0  0  0  0  0  0  0  0  0  0
   25.0196   33.3694   50.3406 C   0  0  0  0  0  0  0  0  0  0  0  0
   25.1207   34.2204   51.6096 C   0  0  0  0  0  0  0  0  0  0  0  0
   24.2089   33.7070   52.5694 O   0  0  0  0  0  0  0  0  0  0  0  0
   24.4274   33.8425   53.8818 C   0  0  0  0  0  0  0  0  0  0  0  0
   25.4468   34.3262   54.3758 O   0  0  0  0  0  0  0  0  0  0  0  0
   23.3143   33.3489   54.5431 N   0  0  0  0  0  0  0  0  0  0  0  0
   23.1199   33.0979   55.9090 C   0  0  0  0  0  0  0  0  0  0  0  0
   24.1414   33.1258   56.8692 C   0  0  0  0  0  0  0  0  0  0  0  0
   23.8696   32.7659   58.1897 C   0  0  0  0  0  0  0  0  0  0  0  0
   22.5879   32.3615   58.5569 C   0  0  0  0  0  0  0  0  0  0  0  0
   21.5635   32.3202   57.6077 C   0  0  0  0  0  0  0  0  0  0  0  0
   20.1562   31.8850   58.0078 C   0  0  0  0  0  0  0  0  0  0  0  0
   19.8644   30.4717   57.6936 N   0  0  0  0  0  0  0  0  0  0  0  0
   19.3890   30.2278   56.4402 N   0  0  0  0  0  0  0  0  0  0  0  0
   19.0442   29.0918   55.9519 C   0  0  0  0  0  0  0  0  0  0  0  0
   19.2131   27.7463   56.6825 C   0  0  0  0  0  0  0  0  0  0  0  0
   19.8987   27.7561   58.3757 S   0  0  0  0  0  0  0  0  0  0  0  0
   20.1827   29.5317   58.6864 C   0  0  0  0  0  0  0  0  0  0  0  0
   20.6467   29.8222   59.7923 O   0  0  0  0  0  0  0  0  0  0  0  0
   18.4155   29.0391   54.5996 C   0  0  0  0  0  0  0  0  0  0  0  0
   17.9456   30.2139   53.9817 C   0  0  0  0  0  0  0  0  0  0  0  0
   17.3441   30.1691   52.7261 C   0  0  0  0  0  0  0  0  0  0  0  0
   17.2051   28.9511   52.0696 C   0  0  0  0  0  0  0  0  0  0  0  0
   16.4736   28.8975   50.5073 Cl  0  0  0  0  0  0  0  0  0  0  0  0
   17.6526   27.7758   52.6640 C   0  0  0  0  0  0  0  0  0  0  0  0
   18.2471   27.8189   53.9222 C   0  0  0  0  0  0  0  0  0  0  0  0
   21.8327   32.7061   56.2913 C   0  0  0  0  0  0  0  0  0  0  0  0
   23.5968   30.4811   47.6104 H   0  0  0  0  0  0  0  0  0  0  0  0
   24.4033   30.9609   49.0891 H   0  0  0  0  0  0  0  0  0  0  0  0
   25.3532   30.4260   47.7088 H   0  0  0  0  0  0  0  0  0  0  0  0
   24.5177   32.4252   46.3705 H   0  0  0  0  0  0  0  0  0  0  0  0
   23.6976   33.0693   47.7875 H   0  0  0  0  0  0  0  0  0  0  0  0
   26.6196   33.0663   45.9418 H   0  0  0  0  0  0  0  0  0  0  0  0
   25.9002   34.6318   46.3996 H   0  0  0  0  0  0  0  0  0  0  0  0
   28.5062   34.6317   46.2047 H   0  0  0  0  0  0  0  0  0  0  0  0
   28.5571   33.5279   47.5728 H   0  0  0  0  0  0  0  0  0  0  0  0
   27.9415   35.1731   47.7690 H   0  0  0  0  0  0  0  0  0  0  0  0
   26.7217   34.3261   49.4276 H   0  0  0  0  0  0  0  0  0  0  0  0
   25.1693   34.9484   48.8141 H   0  0  0  0  0  0  0  0  0  0  0  0
   23.9675   33.2044   50.1122 H   0  0  0  0  0  0  0  0  0  0  0  0
   25.4667   32.3939   50.5322 H   0  0  0  0  0  0  0  0  0  0  0  0
   26.1498   34.2162   51.9755 H   0  0  0  0  0  0  0  0  0  0  0  0
   24.8575   35.2572   51.3965 H   0  0  0  0  0  0  0  0  0  0  0  0
   22.5395   33.1075   53.9443 H   0  0  0  0  0  0  0  0  0  0  0  0
   25.1537   33.4086   56.6205 H   0  0  0  0  0  0  0  0  0  0  0  0
   24.6629   32.7886   58.9236 H   0  0  0  0  0  0  0  0  0  0  0  0
   22.3957   32.0656   59.5762 H   0  0  0  0  0  0  0  0  0  0  0  0
   19.9788   32.1176   59.0609 H   0  0  0  0  0  0  0  0  0  0  0  0
   19.4347   32.5167   57.4888 H   0  0  0  0  0  0  0  0  0  0  0  0
   18.2473   27.2434   56.7524 H   0  0  0  0  0  0  0  0  0  0  0  0
   19.8772   27.1004   56.1068 H   0  0  0  0  0  0  0  0  0  0  0  0
   18.0354   31.1729   54.4712 H   0  0  0  0  0  0  0  0  0  0  0  0
   16.9904   31.0770   52.2615 H   0  0  0  0  0  0  0  0  0  0  0  0
   17.5495   26.8304   52.1502 H   0  0  0  0  0  0  0  0  0  0  0  0
   18.5791   26.8796   54.3375 H   0  0  0  0  0  0  0  0  0  0  0  0
   21.0378   32.6610   55.5594 H   0  0  0  0  0  0  0  0  0  0  0  0
   26.4658   32.3740   48.2108 H   0  0  0  0  0  0  0  0  0  0  0  0
  1  2  1  0
  1 34  1  0
  1 35  1  0
  1 36  1  0
  2  3  1  0
  2 37  1  0
  2 38  1  0
  3  4  1  0
  3  6  1  0
  3 63  1  0
  4  5  1  0
  4 39  1  0
  4 40  1  0
  5 41  1  0
  5 42  1  0
  5 43  1  0
  6  7  1  0
  6 44  1  0
  6 45  1  0
  7  8  1  0
  7 46  1  0
  7 47  1  0
  8  9  1  0
  8 48  1  0
  8 49  1  0
  9 10  1  0
 10 11  2  0
 10 12  1  0
 12 13  1  0
 12 50  1  0
 13 14  2  0
 13 33  1  0
 14 15  1  0
 14 51  1  0
 15 16  2  0
 15 52  1  0
 16 17  1  0
 16 53  1  0
 17 18  1  0
 17 33  2  0
 18 19  1  0
 18 54  1  0
 18 55  1  0
 19 20  1  0
 19 24  1  0
 20 21  2  0
 21 22  1  0
 21 26  1  0
 22 23  1  0
 22 56  1  0
 22 57  1  0
 23 24  1  0
 24 25  2  0
 26 27  2  0
 26 32  1  0
 27 28  1  0
 27 58  1  0
 28 29  2  0
 28 59  1  0
 29 30  1  0
 29 31  1  0
 31 32  2  0
 31 60  1  0
 32 61  1  0
 33 62  1  0
M  CHG  1   3   1
M  END
>  <s_user_Name>  (20) 
CHEMBL3402763_90

>  <IC50[nM]>  (20) 
90

>  <atom.dprop.PartialCharge>  (20) 
-0.13473651 0.10501903 -0.68235755 0.10501903 -0.13473651 0.113943905 -0.12833321 0.15521996 -0.46576345 0.74912536 -0.5592213 -0.45090485 0.08280387 -0.1245435 -0.11324057 -0.11333938 -0.07974247 0.14327906 -0.2126497 -0.3957976 0.36013687 -0.105637856 -0.14146435 0.6619295 -0.5709955 -0.12360785 -0.09194106 -0.13272117 0.045990326 -0.08288105 -0.13272117 -0.09194106 -0.15536958 0.07460227 0.07460227 0.07460227 0.1015918 0.1015918 0.1015918 0.1015918 0.07460227 0.07460227 0.07460227 0.10204959 0.10204959 0.0792847 0.0792847 0.06804892 0.06804892 0.33885595 0.160393 0.14140844 0.14676853 0.088571 0.088571 0.104028866 0.104028866 0.14428031 0.15767837 0.15767837 0.14428031 0.13304266 0.43984678

>  <experimental dG reference units>  (20) 
nM

>  <experimental dG reference field>  (20) 
IC50[nM]

>  <kJ/mol experimental dG>  (20) 
-40.46703245816598

>  <kcal/mol experimental dG>  (20) 
-9.671852881970837

$$$$
CHEMBL3402764_90
     RDKit          3D

 57 59  0  0  0  0  0  0  0  0999 V2000
   24.4983   32.6426   47.4000 C   0  0  0  0  0  0  0  0  0  0  0  0
   25.8477   33.1265   47.9776 N   0  0  0  0  0  0  0  0  0  0  0  0
   26.7282   33.7516   46.8757 C   0  0  0  0  0  0  0  0  0  0  0  0
   25.7070   34.0817   49.1846 C   0  0  0  0  0  0  0  0  0  0  0  0
   24.9669   33.4120   50.3525 C   0  0  0  0  0  0  0  0  0  0  0  0
   25.0476   34.2680   51.6221 C   0  0  0  0  0  0  0  0  0  0  0  0
   24.1442   33.7553   52.5943 O   0  0  0  0  0  0  0  0  0  0  0  0
   24.4004   33.8646   53.9094 C   0  0  0  0  0  0  0  0  0  0  0  0
   25.4439   34.3239   54.3765 O   0  0  0  0  0  0  0  0  0  0  0  0
   23.2956   33.3782   54.5987 N   0  0  0  0  0  0  0  0  0  0  0  0
   23.1427   33.0843   55.9651 C   0  0  0  0  0  0  0  0  0  0  0  0
   24.1938   33.1130   56.8977 C   0  0  0  0  0  0  0  0  0  0  0  0
   23.9701   32.7046   58.2133 C   0  0  0  0  0  0  0  0  0  0  0  0
   22.7094   32.2562   58.6081 C   0  0  0  0  0  0  0  0  0  0  0  0
   21.6523   32.2304   57.6940 C   0  0  0  0  0  0  0  0  0  0  0  0
   20.2620   31.7774   58.1408 C   0  0  0  0  0  0  0  0  0  0  0  0
   19.9517   30.3721   57.8100 N   0  0  0  0  0  0  0  0  0  0  0  0
   19.4515   30.1430   56.5234 N   0  0  0  0  0  0  0  0  0  0  0  0
   19.1719   28.9566   56.0882 C   0  0  0  0  0  0  0  0  0  0  0  0
   19.4049   27.8574   57.0122 C   0  0  0  0  0  0  0  0  0  0  0  0
   19.8897   28.0688   58.2559 C   0  0  0  0  0  0  0  0  0  0  0  0
   20.2101   29.3962   58.7559 C   0  0  0  0  0  0  0  0  0  0  0  0
   20.6471   29.5714   59.8944 O   0  0  0  0  0  0  0  0  0  0  0  0
   18.6411   28.7040   54.7248 C   0  0  0  0  0  0  0  0  0  0  0  0
   17.9457   27.5247   54.4124 C   0  0  0  0  0  0  0  0  0  0  0  0
   17.4541   27.3084   53.1266 C   0  0  0  0  0  0  0  0  0  0  0  0
   17.6594   28.2659   52.1380 C   0  0  0  0  0  0  0  0  0  0  0  0
   17.1816   28.0564   50.8899 F   0  0  0  0  0  0  0  0  0  0  0  0
   18.3519   29.4381   52.4270 C   0  0  0  0  0  0  0  0  0  0  0  0
   18.8414   29.6559   53.7125 C   0  0  0  0  0  0  0  0  0  0  0  0
   21.8740   32.6562   56.3786 C   0  0  0  0  0  0  0  0  0  0  0  0
   23.9868   32.0683   48.1732 H   0  0  0  0  0  0  0  0  0  0  0  0
   24.7173   32.0099   46.5367 H   0  0  0  0  0  0  0  0  0  0  0  0
   23.9268   33.5257   47.1104 H   0  0  0  0  0  0  0  0  0  0  0  0
   27.6879   34.0173   47.3235 H   0  0  0  0  0  0  0  0  0  0  0  0
   26.2116   34.6326   46.4901 H   0  0  0  0  0  0  0  0  0  0  0  0
   26.8650   32.9982   46.0986 H   0  0  0  0  0  0  0  0  0  0  0  0
   26.7316   34.3260   49.4693 H   0  0  0  0  0  0  0  0  0  0  0  0
   25.2033   34.9796   48.8228 H   0  0  0  0  0  0  0  0  0  0  0  0
   23.9164   33.2654   50.0932 H   0  0  0  0  0  0  0  0  0  0  0  0
   25.3859   32.4241   50.5579 H   0  0  0  0  0  0  0  0  0  0  0  0
   26.0764   34.2786   51.9887 H   0  0  0  0  0  0  0  0  0  0  0  0
   24.7726   35.2996   51.4025 H   0  0  0  0  0  0  0  0  0  0  0  0
   22.4979   33.1553   54.0205 H   0  0  0  0  0  0  0  0  0  0  0  0
   25.1884   33.4288   56.6266 H   0  0  0  0  0  0  0  0  0  0  0  0
   24.7862   32.7203   58.9219 H   0  0  0  0  0  0  0  0  0  0  0  0
   22.5539   31.9248   59.6252 H   0  0  0  0  0  0  0  0  0  0  0  0
   20.1375   31.9754   59.2077 H   0  0  0  0  0  0  0  0  0  0  0  0
   19.5167   32.4201   57.6663 H   0  0  0  0  0  0  0  0  0  0  0  0
   19.2194   26.8341   56.7260 H   0  0  0  0  0  0  0  0  0  0  0  0
   20.0661   27.2285   58.9091 H   0  0  0  0  0  0  0  0  0  0  0  0
   17.7647   26.7541   55.1486 H   0  0  0  0  0  0  0  0  0  0  0  0
   16.9208   26.3981   52.8933 H   0  0  0  0  0  0  0  0  0  0  0  0
   18.5097   30.1723   51.6504 H   0  0  0  0  0  0  0  0  0  0  0  0
   19.3813   30.5702   53.9102 H   0  0  0  0  0  0  0  0  0  0  0  0
   21.0578   32.6204   55.6701 H   0  0  0  0  0  0  0  0  0  0  0  0
   26.3475   32.3089   48.3217 H   0  0  0  0  0  0  0  0  0  0  0  0
  1  2  1  0
  1 32  1  0
  1 33  1  0
  1 34  1  0
  2  3  1  0
  2  4  1  0
  2 57  1  0
  3 35  1  0
  3 36  1  0
  3 37  1  0
  4  5  1  0
  4 38  1  0
  4 39  1  0
  5  6  1  0
  5 40  1  0
  5 41  1  0
  6  7  1  0
  6 42  1  0
  6 43  1  0
  7  8  1  0
  8  9  2  0
  8 10  1  0
 10 11  1  0
 10 44  1  0
 11 12  2  0
 11 31  1  0
 12 13  1  0
 12 45  1  0
 13 14  2  0
 13 46  1  0
 14 15  1  0
 14 47  1  0
 15 16  1  0
 15 31  2  0
 16 17  1  0
 16 48  1  0
 16 49  1  0
 17 18  1  0
 17 22  1  0
 18 19  2  0
 19 20  1  0
 19 24  1  0
 20 21  2  0
 20 50  1  0
 21 22  1  0
 21 51  1  0
 22 23  2  0
 24 25  2  0
 24 30  1  0
 25 26  1  0
 25 52  1  0
 26 27  2  0
 26 53  1  0
 27 28  1  0
 27 29  1  0
 29 30  2  0
 29 54  1  0
 30 55  1  0
 31 56  1  0
M  CHG  1   2   1
M  END
>  <s_user_Name>  (21) 
CHEMBL3402764_90

>  <IC50[nM]>  (21) 
90

>  <atom.dprop.PartialCharge>  (21) 
0.07825248 -0.6825112 0.07825248 0.108983874 -0.12871918 0.15552205 -0.46611565 0.74857765 -0.559769 -0.45145267 0.08072842 -0.12509115 -0.11667557 -0.113842875 -0.077344775 0.1443333 -0.17895588 -0.38222656 0.37078002 -0.14544642 -0.21857354 0.6557766 -0.612375 -0.13901348 -0.078357324 -0.16478822 0.14074707 -0.13280356 -0.16478822 -0.078357324 -0.1574807 0.10536297 0.10536297 0.10536297 0.10536297 0.10536297 0.10536297 0.10759169 0.10759169 0.0787211 0.0787211 0.06809522 0.06809522 0.33830833 0.15984534 0.14086078 0.14788464 0.08640604 0.08640604 0.16050027 0.16785201 0.14453265 0.15665561 0.15665561 0.14453265 0.132456 0.44884425

>  <experimental dG reference units>  (21) 
nM

>  <experimental dG reference field>  (21) 
IC50[nM]

>  <kJ/mol experimental dG>  (21) 
-40.46703245816598

>  <kcal/mol experimental dG>  (21) 
-9.671852881970837

$$$$
CHEMBL3402751_2100
     RDKit          3D

 43 46  0  0  0  0  0  0  0  0999 V2000
   25.4546   34.0626   51.8681 C   0  0  0  0  0  0  0  0  0  0  0  0
   24.2458   33.5655   52.6084 C   0  0  0  0  0  0  0  0  0  0  0  0
   23.0466   33.1217   52.0694 C   0  0  0  0  0  0  0  0  0  0  0  0
   21.9546   32.7270   53.3515 S   0  0  0  0  0  0  0  0  0  0  0  0
   23.1994   33.1657   54.4892 C   0  0  0  0  0  0  0  0  0  0  0  0
   24.3147   33.5726   53.9283 N   0  0  0  0  0  0  0  0  0  0  0  0
   23.0109   32.9868   55.9672 C   0  0  0  0  0  0  0  0  0  0  0  0
   24.0904   33.1252   56.8524 C   0  0  0  0  0  0  0  0  0  0  0  0
   23.9482   32.8025   58.2023 C   0  0  0  0  0  0  0  0  0  0  0  0
   22.7220   32.3503   58.6876 C   0  0  0  0  0  0  0  0  0  0  0  0
   21.6224   32.2538   57.8330 C   0  0  0  0  0  0  0  0  0  0  0  0
   20.2645   31.7859   58.3460 C   0  0  0  0  0  0  0  0  0  0  0  0
   19.9383   30.4029   57.9522 N   0  0  0  0  0  0  0  0  0  0  0  0
   19.4243   30.2333   56.6662 N   0  0  0  0  0  0  0  0  0  0  0  0
   19.0833   29.0741   56.1949 C   0  0  0  0  0  0  0  0  0  0  0  0
   19.3233   27.9339   57.0667 C   0  0  0  0  0  0  0  0  0  0  0  0
   19.8505   28.0858   58.3019 C   0  0  0  0  0  0  0  0  0  0  0  0
   20.1983   29.3876   58.8430 C   0  0  0  0  0  0  0  0  0  0  0  0
   20.6466   29.5267   59.9800 O   0  0  0  0  0  0  0  0  0  0  0  0
   18.4707   28.9052   54.8520 C   0  0  0  0  0  0  0  0  0  0  0  0
   18.2408   27.6408   54.2812 C   0  0  0  0  0  0  0  0  0  0  0  0
   17.5943   27.5179   53.0509 C   0  0  0  0  0  0  0  0  0  0  0  0
   17.3595   26.2922   52.5332 F   0  0  0  0  0  0  0  0  0  0  0  0
   17.1807   28.6542   52.3604 C   0  0  0  0  0  0  0  0  0  0  0  0
   17.4067   29.9163   52.9017 C   0  0  0  0  0  0  0  0  0  0  0  0
   16.9990   31.0230   52.2407 F   0  0  0  0  0  0  0  0  0  0  0  0
   18.0491   30.0411   54.1333 C   0  0  0  0  0  0  0  0  0  0  0  0
   21.7707   32.5908   56.4850 C   0  0  0  0  0  0  0  0  0  0  0  0
   25.6022   35.1228   52.0676 H   0  0  0  0  0  0  0  0  0  0  0  0
   25.3498   33.9567   50.7902 H   0  0  0  0  0  0  0  0  0  0  0  0
   26.3609   33.5264   52.1496 H   0  0  0  0  0  0  0  0  0  0  0  0
   22.7549   33.0415   51.0331 H   0  0  0  0  0  0  0  0  0  0  0  0
   25.0615   33.4345   56.4916 H   0  0  0  0  0  0  0  0  0  0  0  0
   24.8015   32.8789   58.8636 H   0  0  0  0  0  0  0  0  0  0  0  0
   22.6301   32.0620   59.7238 H   0  0  0  0  0  0  0  0  0  0  0  0
   20.2058   31.9337   59.4280 H   0  0  0  0  0  0  0  0  0  0  0  0
   19.4974   32.4531   57.9494 H   0  0  0  0  0  0  0  0  0  0  0  0
   19.0880   26.9238   56.7639 H   0  0  0  0  0  0  0  0  0  0  0  0
   20.0252   27.2181   58.9207 H   0  0  0  0  0  0  0  0  0  0  0  0
   18.5424   26.7267   54.7670 H   0  0  0  0  0  0  0  0  0  0  0  0
   16.6799   28.5527   51.4100 H   0  0  0  0  0  0  0  0  0  0  0  0
   18.1922   31.0351   54.5284 H   0  0  0  0  0  0  0  0  0  0  0  0
   20.9150   32.4861   55.8355 H   0  0  0  0  0  0  0  0  0  0  0  0
  1  2  1  0
  1 29  1  0
  1 30  1  0
  1 31  1  0
  2  3  2  0
  2  6  1  0
  3  4  1  0
  3 32  1  0
  4  5  1  0
  5  6  2  0
  5  7  1  0
  7  8  2  0
  7 28  1  0
  8  9  1  0
  8 33  1  0
  9 10  2  0
  9 34  1  0
 10 11  1  0
 10 35  1  0
 11 12  1  0
 11 28  2  0
 12 13  1  0
 12 36  1  0
 12 37  1  0
 13 14  1  0
 13 18  1  0
 14 15  2  0
 15 16  1  0
 15 20  1  0
 16 17  2  0
 16 38  1  0
 17 18  1  0
 17 39  1  0
 18 19  2  0
 20 21  2  0
 20 27  1  0
 21 22  1  0
 21 40  1  0
 22 23  1  0
 22 24  2  0
 24 25  1  0
 24 41  1  0
 25 26  1  0
 25 27  2  0
 27 42  1  0
 28 43  1  0
M  END
>  <s_user_Name>  (22) 
CHEMBL3402751_2100

>  <IC50[nM]>  (22) 
2100

>  <atom.dprop.PartialCharge>  (22) 
-0.12139772 0.3545807 -0.2614728 -0.09384736 0.45483166 -0.6233046 -0.123030335 -0.09223789 -0.1353321 -0.0961535 -0.09862187 0.14540045 -0.17875282 -0.3764218 0.35556784 -0.14362074 -0.21946654 0.65266246 -0.61574495 -0.07941596 -0.16575089 0.15952343 -0.13625517 -0.19609722 0.15952343 -0.13625517 -0.16575089 -0.1059608 0.052305695 0.052305695 0.052305695 0.18092658 0.15495248 0.13903075 0.14615196 0.08329931 0.08329931 0.15750195 0.1644824 0.15619925 0.16632581 0.15619925 0.1375149

>  <experimental dG reference units>  (22) 
nM

>  <experimental dG reference field>  (22) 
IC50[nM]

>  <kJ/mol experimental dG>  (22) 
-32.61011131850173

>  <kcal/mol experimental dG>  (22) 
-7.794003661209782

$$$$
CHEMBL3402756_2.7
     RDKit          3D

 61 64  0  0  0  0  0  0  0  0999 V2000
   22.9982   29.9362   47.9072 C   0  0  0  0  0  0  0  0  0  0  0  0
   24.3278   30.6778   48.1609 N   0  0  0  0  0  0  0  0  0  0  0  0
   25.2664   30.5513   46.9393 C   0  0  0  0  0  0  0  0  0  0  0  0
   24.0978   32.1445   48.6051 C   0  0  0  0  0  0  0  0  0  0  0  0
   25.3345   32.6707   49.3599 C   0  0  0  0  0  0  0  0  0  0  0  0
   25.1667   34.0667   49.9645 C   0  0  0  0  0  0  0  0  0  0  0  0
   23.9434   34.1323   50.6770 O   0  0  0  0  0  0  0  0  0  0  0  0
   23.8842   33.7706   52.0053 C   0  0  0  0  0  0  0  0  0  0  0  0
   24.9032   33.9262   52.9577 C   0  0  0  0  0  0  0  0  0  0  0  0
   24.7082   33.6761   54.2810 N   0  0  0  0  0  0  0  0  0  0  0  0
   23.4676   33.2411   54.6519 C   0  0  0  0  0  0  0  0  0  0  0  0
   22.4407   33.0212   53.7890 N   0  0  0  0  0  0  0  0  0  0  0  0
   22.6702   33.2865   52.4828 C   0  0  0  0  0  0  0  0  0  0  0  0
   23.2133   32.9433   56.1005 C   0  0  0  0  0  0  0  0  0  0  0  0
   24.2471   32.9703   57.0489 C   0  0  0  0  0  0  0  0  0  0  0  0
   24.0213   32.6080   58.3754 C   0  0  0  0  0  0  0  0  0  0  0  0
   22.7536   32.2027   58.7775 C   0  0  0  0  0  0  0  0  0  0  0  0
   21.6963   32.1902   57.8694 C   0  0  0  0  0  0  0  0  0  0  0  0
   20.2957   31.7807   58.3139 C   0  0  0  0  0  0  0  0  0  0  0  0
   19.9551   30.3978   57.9357 N   0  0  0  0  0  0  0  0  0  0  0  0
   19.4349   30.2277   56.6502 N   0  0  0  0  0  0  0  0  0  0  0  0
   19.0827   29.0695   56.1873 C   0  0  0  0  0  0  0  0  0  0  0  0
   19.3170   27.9301   57.0633 C   0  0  0  0  0  0  0  0  0  0  0  0
   19.8474   28.0856   58.2968 C   0  0  0  0  0  0  0  0  0  0  0  0
   20.1991   29.3867   58.8373 C   0  0  0  0  0  0  0  0  0  0  0  0
   20.6471   29.5265   59.9760 O   0  0  0  0  0  0  0  0  0  0  0  0
   18.4608   28.9036   54.8502 C   0  0  0  0  0  0  0  0  0  0  0  0
   18.0110   30.0386   54.1489 C   0  0  0  0  0  0  0  0  0  0  0  0
   17.3558   29.9185   52.9254 C   0  0  0  0  0  0  0  0  0  0  0  0
   16.9185   31.0287   52.2852 F   0  0  0  0  0  0  0  0  0  0  0  0
   17.1385   28.6589   52.3755 C   0  0  0  0  0  0  0  0  0  0  0  0
   17.5843   27.5222   53.0461 C   0  0  0  0  0  0  0  0  0  0  0  0
   17.3561   26.2982   52.5187 F   0  0  0  0  0  0  0  0  0  0  0  0
   18.2471   27.6433   54.2679 C   0  0  0  0  0  0  0  0  0  0  0  0
   21.9285   32.5770   56.5496 C   0  0  0  0  0  0  0  0  0  0  0  0
   22.4084   29.9823   48.8233 H   0  0  0  0  0  0  0  0  0  0  0  0
   23.2350   28.9005   47.6614 H   0  0  0  0  0  0  0  0  0  0  0  0
   22.4853   30.4335   47.0812 H   0  0  0  0  0  0  0  0  0  0  0  0
   26.2201   31.0264   47.1753 H   0  0  0  0  0  0  0  0  0  0  0  0
   24.7849   31.0399   46.0894 H   0  0  0  0  0  0  0  0  0  0  0  0
   25.4169   29.4867   46.7506 H   0  0  0  0  0  0  0  0  0  0  0  0
   23.8475   32.7233   47.7129 H   0  0  0  0  0  0  0  0  0  0  0  0
   23.2308   32.1204   49.2703 H   0  0  0  0  0  0  0  0  0  0  0  0
   25.5937   31.9729   50.1566 H   0  0  0  0  0  0  0  0  0  0  0  0
   26.1821   32.7267   48.6768 H   0  0  0  0  0  0  0  0  0  0  0  0
   26.0431   34.3269   50.5594 H   0  0  0  0  0  0  0  0  0  0  0  0
   25.1075   34.8007   49.1596 H   0  0  0  0  0  0  0  0  0  0  0  0
   25.8727   34.3172   52.6928 H   0  0  0  0  0  0  0  0  0  0  0  0
   21.8471   33.1264   51.8062 H   0  0  0  0  0  0  0  0  0  0  0  0
   25.2516   33.2553   56.7722 H   0  0  0  0  0  0  0  0  0  0  0  0
   24.8402   32.6301   59.0814 H   0  0  0  0  0  0  0  0  0  0  0  0
   22.5933   31.8934   59.7997 H   0  0  0  0  0  0  0  0  0  0  0  0
   20.1839   31.9493   59.3885 H   0  0  0  0  0  0  0  0  0  0  0  0
   19.5726   32.4652   57.8639 H   0  0  0  0  0  0  0  0  0  0  0  0
   19.0791   26.9217   56.7594 H   0  0  0  0  0  0  0  0  0  0  0  0
   20.0182   27.2186   58.9202 H   0  0  0  0  0  0  0  0  0  0  0  0
   18.1470   31.0302   54.5541 H   0  0  0  0  0  0  0  0  0  0  0  0
   16.6177   28.5582   51.4351 H   0  0  0  0  0  0  0  0  0  0  0  0
   18.5720   26.7303   54.7431 H   0  0  0  0  0  0  0  0  0  0  0  0
   21.0976   32.5492   55.8598 H   0  0  0  0  0  0  0  0  0  0  0  0
   24.7827   30.2113   48.9368 H   0  0  0  0  0  0  0  0  0  0  0  0
  1  2  1  0
  1 36  1  0
  1 37  1  0
  1 38  1  0
  2  3  1  0
  2  4  1  0
  2 61  1  0
  3 39  1  0
  3 40  1  0
  3 41  1  0
  4  5  1  0
  4 42  1  0
  4 43  1  0
  5  6  1  0
  5 44  1  0
  5 45  1  0
  6  7  1  0
  6 46  1  0
  6 47  1  0
  7  8  1  0
  8  9  2  0
  8 13  1  0
  9 10  1  0
  9 48  1  0
 10 11  2  0
 11 12  1  0
 11 14  1  0
 12 13  2  0
 13 49  1  0
 14 15  2  0
 14 35  1  0
 15 16  1  0
 15 50  1  0
 16 17  2  0
 16 51  1  0
 17 18  1  0
 17 52  1  0
 18 19  1  0
 18 35  2  0
 19 20  1  0
 19 53  1  0
 19 54  1  0
 20 21  1  0
 20 25  1  0
 21 22  2  0
 22 23  1  0
 22 27  1  0
 23 24  2  0
 23 55  1  0
 24 25  1  0
 24 56  1  0
 25 26  2  0
 27 28  2  0
 27 34  1  0
 28 29  1  0
 28 57  1  0
 29 30  1  0
 29 31  2  0
 31 32  1  0
 31 58  1  0
 32 33  1  0
 32 34  2  0
 34 59  1  0
 35 60  1  0
M  CHG  1   2   1
M  END
>  <s_user_Name>  (23) 
CHEMBL3402756_2.7

>  <IC50[nM]>  (23) 
2.7000000000000002

>  <atom.dprop.PartialCharge>  (23) 
0.0782112 -0.6833352 0.0782112 0.108665705 -0.1163787 0.13232195 -0.3176301 -0.17675602 0.4285062 -0.6234524 0.6404452 -0.6234524 0.4285062 -0.15636475 -0.09676068 -0.12791458 -0.095220454 -0.10341906 0.14747871 -0.17436151 -0.37306646 0.3589436 -0.1402444 -0.21609011 0.6560162 -0.61236817 -0.07603964 -0.16237463 0.16289952 -0.13287857 -0.19272082 0.16289952 -0.13287857 -0.16237463 -0.08626623 0.10536981 0.10536981 0.10536981 0.10536981 0.10536981 0.10536981 0.10701372 0.10701372 0.07849372 0.07849372 0.044680223 0.044680223 0.043617234 0.043617234 0.14427966 0.14024653 0.14880788 0.086317666 0.086317666 0.16087838 0.16785887 0.1595757 0.16970225 0.1595757 0.14704718 0.44880643

>  <experimental dG reference units>  (23) 
nM

>  <experimental dG reference field>  (23) 
IC50[nM]

>  <kJ/mol experimental dG>  (23) 
-49.21362694395015

>  <kcal/mol experimental dG>  (23) 
-11.762339135743344

$$$$
CHEMBL3402760_1
     RDKit          3D

 62 65  0  0  0  0  0  0  0  0999 V2000
   24.5142   29.6953   47.9585 C   0  0  0  0  0  0  0  0  0  0  0  0
   25.0478   30.9914   47.3121 N   0  0  0  0  0  0  0  0  0  0  0  0
   25.0352   30.8721   45.7714 C   0  0  0  0  0  0  0  0  0  0  0  0
   24.2814   32.2462   47.7916 C   0  0  0  0  0  0  0  0  0  0  0  0
   24.6889   32.6254   49.2268 C   0  0  0  0  0  0  0  0  0  0  0  0
   24.0700   33.9609   49.6661 C   0  0  0  0  0  0  0  0  0  0  0  0
   24.6994   34.3776   50.8698 O   0  0  0  0  0  0  0  0  0  0  0  0
   24.2676   33.9261   52.0991 C   0  0  0  0  0  0  0  0  0  0  0  0
   25.0957   34.1824   53.1917 C   0  0  0  0  0  0  0  0  0  0  0  0
   24.7495   33.8877   54.4681 N   0  0  0  0  0  0  0  0  0  0  0  0
   23.5277   33.3148   54.6599 C   0  0  0  0  0  0  0  0  0  0  0  0
   22.6559   33.0070   53.6557 N   0  0  0  0  0  0  0  0  0  0  0  0
   23.0377   33.3162   52.3872 C   0  0  0  0  0  0  0  0  0  0  0  0
   23.1444   32.9496   56.0657 C   0  0  0  0  0  0  0  0  0  0  0  0
   24.1013   32.9515   57.0936 C   0  0  0  0  0  0  0  0  0  0  0  0
   23.7807   32.5462   58.3864 C   0  0  0  0  0  0  0  0  0  0  0  0
   22.4873   32.1321   58.6834 C   0  0  0  0  0  0  0  0  0  0  0  0
   21.5035   32.1395   57.6943 C   0  0  0  0  0  0  0  0  0  0  0  0
   20.0756   31.7262   58.0418 C   0  0  0  0  0  0  0  0  0  0  0  0
   19.7788   30.3264   57.6974 N   0  0  0  0  0  0  0  0  0  0  0  0
   19.3220   30.1063   56.3970 N   0  0  0  0  0  0  0  0  0  0  0  0
   19.0578   28.9232   55.9396 C   0  0  0  0  0  0  0  0  0  0  0  0
   19.2639   27.8190   56.8630 C   0  0  0  0  0  0  0  0  0  0  0  0
   19.7247   28.0235   58.1197 C   0  0  0  0  0  0  0  0  0  0  0  0
   20.0267   29.3467   58.6401 C   0  0  0  0  0  0  0  0  0  0  0  0
   20.4528   29.5258   59.7830 O   0  0  0  0  0  0  0  0  0  0  0  0
   18.5859   28.6953   54.5539 C   0  0  0  0  0  0  0  0  0  0  0  0
   18.8374   29.6707   53.5722 C   0  0  0  0  0  0  0  0  0  0  0  0
   18.4128   29.4909   52.2572 C   0  0  0  0  0  0  0  0  0  0  0  0
   17.7329   28.3325   51.8947 C   0  0  0  0  0  0  0  0  0  0  0  0
   17.4785   27.3446   52.8514 C   0  0  0  0  0  0  0  0  0  0  0  0
   17.9055   27.5253   54.1718 C   0  0  0  0  0  0  0  0  0  0  0  0
   16.7887   26.1237   52.4583 C   0  0  0  0  0  0  0  0  0  0  0  0
   16.2471   25.1517   52.1433 N   0  0  0  0  0  0  0  0  0  0  0  0
   21.8349   32.5514   56.3972 C   0  0  0  0  0  0  0  0  0  0  0  0
   25.0981   28.8539   47.5794 H   0  0  0  0  0  0  0  0  0  0  0  0
   23.4604   29.5878   47.6995 H   0  0  0  0  0  0  0  0  0  0  0  0
   24.6463   29.8069   49.0319 H   0  0  0  0  0  0  0  0  0  0  0  0
   25.6208   29.9926   45.4977 H   0  0  0  0  0  0  0  0  0  0  0  0
   25.4917   31.7762   45.3646 H   0  0  0  0  0  0  0  0  0  0  0  0
   23.9979   30.7731   45.4452 H   0  0  0  0  0  0  0  0  0  0  0  0
   23.2138   32.0440   47.6748 H   0  0  0  0  0  0  0  0  0  0  0  0
   24.5642   33.0446   47.1048 H   0  0  0  0  0  0  0  0  0  0  0  0
   25.7769   32.7183   49.2815 H   0  0  0  0  0  0  0  0  0  0  0  0
   24.4097   31.8543   49.9454 H   0  0  0  0  0  0  0  0  0  0  0  0
   22.9769   33.9265   49.7093 H   0  0  0  0  0  0  0  0  0  0  0  0
   24.3180   34.7240   48.9251 H   0  0  0  0  0  0  0  0  0  0  0  0
   26.0425   34.6825   53.0470 H   0  0  0  0  0  0  0  0  0  0  0  0
   22.2995   33.1186   51.6219 H   0  0  0  0  0  0  0  0  0  0  0  0
   25.1196   33.2487   56.8940 H   0  0  0  0  0  0  0  0  0  0  0  0
   24.5425   32.5454   59.1518 H   0  0  0  0  0  0  0  0  0  0  0  0
   22.2477   31.8032   59.6837 H   0  0  0  0  0  0  0  0  0  0  0  0
   19.3795   32.3699   57.5020 H   0  0  0  0  0  0  0  0  0  0  0  0
   19.8732   31.9406   59.0947 H   0  0  0  0  0  0  0  0  0  0  0  0
   19.0824   26.7951   56.5699 H   0  0  0  0  0  0  0  0  0  0  0  0
   19.8855   27.1800   58.7735 H   0  0  0  0  0  0  0  0  0  0  0  0
   19.3708   30.5777   53.8186 H   0  0  0  0  0  0  0  0  0  0  0  0
   18.6160   30.2516   51.5169 H   0  0  0  0  0  0  0  0  0  0  0  0
   17.4168   28.2056   50.8690 H   0  0  0  0  0  0  0  0  0  0  0  0
   17.6976   26.7470   54.8942 H   0  0  0  0  0  0  0  0  0  0  0  0
   21.0682   32.5367   55.6344 H   0  0  0  0  0  0  0  0  0  0  0  0
   26.0123   31.1088   47.6156 H   0  0  0  0  0  0  0  0  0  0  0  0
  1  2  1  0
  1 36  1  0
  1 37  1  0
  1 38  1  0
  2  3  1  0
  2  4  1  0
  2 62  1  0
  3 39  1  0
  3 40  1  0
  3 41  1  0
  4  5  1  0
  4 42  1  0
  4 43  1  0
  5  6  1  0
  5 44  1  0
  5 45  1  0
  6  7  1  0
  6 46  1  0
  6 47  1  0
  7  8  1  0
  8  9  2  0
  8 13  1  0
  9 10  1  0
  9 48  1  0
 10 11  2  0
 11 12  1  0
 11 14  1  0
 12 13  2  0
 13 49  1  0
 14 15  2  0
 14 35  1  0
 15 16  1  0
 15 50  1  0
 16 17  2  0
 16 51  1  0
 17 18  1  0
 17 52  1  0
 18 19  1  0
 18 35  2  0
 19 20  1  0
 19 53  1  0
 19 54  1  0
 20 21  1  0
 20 25  1  0
 21 22  2  0
 22 23  1  0
 22 27  1  0
 23 24  2  0
 23 55  1  0
 24 25  1  0
 24 56  1  0
 25 26  2  0
 27 28  2  0
 27 32  1  0
 28 29  1  0
 28 57  1  0
 29 30  2  0
 29 58  1  0
 30 31  1  0
 30 59  1  0
 31 32  2  0
 31 33  1  0
 32 60  1  0
 33 34  3  0
 35 61  1  0
M  CHG  1   2   1
M  END
>  <s_user_Name>  (24) 
CHEMBL3402760_1

>  <IC50[nM]>  (24) 
1

>  <atom.dprop.PartialCharge>  (24) 
0.0779728 -0.6835737 0.0779728 0.108427316 -0.11661711 0.13208356 -0.31786853 -0.17699443 0.42826784 -0.62369096 0.64020675 -0.62369096 0.42826784 -0.15660317 -0.09699908 -0.12815298 -0.09545885 -0.10365747 0.14724031 -0.17478739 -0.37711865 0.37312287 -0.142046 -0.21664137 0.65577775 -0.61260664 -0.13500167 -0.085348964 -0.13746482 -0.07508221 -0.014780741 -0.07073192 0.24126023 -0.3592114 -0.08650462 0.10513142 0.10513142 0.10513142 0.10513142 0.10513142 0.10513142 0.10677532 0.10677532 0.078255296 0.078255296 0.04444181 0.04444181 0.043378823 0.043378823 0.14404124 0.14000809 0.14856946 0.08607924 0.08607924 0.16108502 0.16762044 0.14447953 0.14822307 0.15051712 0.15146336 0.14680876 0.44856802

>  <experimental dG reference units>  (24) 
nM

>  <experimental dG reference field>  (24) 
IC50[nM]

>  <kJ/mol experimental dG>  (24) 
-51.6911478448447

>  <kcal/mol experimental dG>  (24) 
-12.354480842458102

$$$$
