23467
     RDKit          3D

 31 32  0  0  1  0  0  0  0  0999 V2000
   43.4349   13.9762   16.5152 S   0  0  0  0  0  0  0  0  0  0  0  0
   43.2388   15.3847   15.4302 C   0  0  0  0  0  0  0  0  0  0  0  0
   42.3225   15.1290   14.5121 C   0  0  0  0  0  0  0  0  0  0  0  0
   41.7595   13.7729   14.6019 C   0  0  0  0  0  0  0  0  0  0  0  0
   42.1868   13.0208   15.6281 C   0  0  0  0  0  0  0  0  0  0  0  0
   43.9400   16.6164   15.7216 C   0  0  0  0  0  0  0  0  0  0  0  0
   44.3927   16.6325   16.8863 O   0  0  0  0  0  0  0  0  0  0  0  0
   44.0706   17.5599   14.9107 O   0  0  0  0  0  0  0  0  0  0  0  0
   41.8822   11.6386   16.0501 C   0  0  0  0  0  0  0  0  0  0  0  0
   40.5678   11.0458   15.8591 C   0  0  0  0  0  0  0  0  0  0  0  0
   40.3696    9.6768   16.2269 C   0  0  0  0  0  0  0  0  0  0  0  0
   41.4677    8.9015   16.8005 C   0  0  0  0  0  0  0  0  0  0  0  0
   42.7809    9.4864   17.0095 C   0  0  0  0  0  0  0  0  0  0  0  0
   42.9621   10.8634   16.6495 C   0  0  0  0  0  0  0  0  0  0  0  0
   40.5688   13.1537   13.2606 Br  0  0  0  0  0  0  0  0  0  0  0  0
   42.0383   16.0154   13.5689 O   0  0  0  0  0  0  0  0  0  0  0  0
   40.8225   16.7172   13.7275 C   0  0  0  0  0  0  0  0  0  0  0  0
   40.5922   17.4164   12.4629 C   0  0  0  0  0  0  0  0  0  0  0  0
   39.4465   17.8760   12.3022 O   0  0  0  0  0  0  0  0  0  0  0  0
   41.5197   17.5214   11.6281 O   0  0  0  0  0  0  0  0  0  0  0  0
   39.1072    9.1627   16.0191 O   0  0  0  0  0  0  0  0  0  0  0  0
   38.8832    7.7741   16.2431 C   0  0  0  0  0  0  0  0  0  0  0  0
   39.7826   11.6351   15.4431 H   0  0  0  0  0  0  0  0  0  0  0  0
   41.3256    7.8684   17.0784 H   0  0  0  0  0  0  0  0  0  0  0  0
   43.5916    8.9086   17.4293 H   0  0  0  0  0  0  0  0  0  0  0  0
   43.9418   11.2995   16.7830 H   0  0  0  0  0  0  0  0  0  0  0  0
   40.9171   17.4457   14.5355 H   0  0  0  0  0  0  0  0  0  0  0  0
   39.9902   16.0542   13.9761 H   0  0  0  0  0  0  0  0  0  0  0  0
   39.5355    7.1557   15.6240 H   0  0  0  0  0  0  0  0  0  0  0  0
   39.0262    7.5083   17.2916 H   0  0  0  0  0  0  0  0  0  0  0  0
   37.8538    7.5289   15.9816 H   0  0  0  0  0  0  0  0  0  0  0  0
  1  2  1  0
  1  5  1  0
  2  3  2  0
  2  6  1  0
  3  4  1  0
  3 16  1  0
  4  5  2  0
  4 15  1  0
  5  9  1  0
  6  7  2  0
  6  8  1  0
  9 10  2  0
  9 14  1  0
 10 11  1  0
 10 23  1  0
 11 12  2  0
 11 21  1  0
 12 13  1  0
 12 24  1  0
 13 14  2  0
 13 25  1  0
 14 26  1  0
 16 17  1  0
 17 18  1  0
 17 27  1  0
 17 28  1  0
 18 19  1  0
 18 20  2  0
 21 22  1  0
 22 29  1  0
 22 30  1  0
 22 31  1  0
M  CHG  2   8  -1  19  -1
M  END
>  <r_exp_dg>  (1) 
-7.34

>  <AmberAM1BCCCache>  (1) 
gASVqAIAAAAAAABdlCiMFm51bXB5Ll9jb3JlLm11bHRpYXJyYXmUjAZzY2FsYXKUk5SMBW51bXB5lIwFZHR5cGWUk5SMAmY4lImIh5RSlChLA4wBPJROTk5K/////0r/////SwB0lGJDCPpg1IqXA9w/lIaUUpRoA2gJQwguuaFZYzIAwJSGlFKUaANoCUMIRKbjuw/Y+T+UhpRSlGgDaAlDCL4Disc0leC/lIaUUpRoA2gJQwidD3KqujT+v5SGlFKUaANoCUMI5I3xMKwjJkCUhpRSlGgDaAlDCOcj5D/JRCPAlIaUUpRoA2gJQwjnI+Q/yUQjwJSGlFKUaANoCUMIkPls3Dxl8D+UhpRSlGgDaAlDCKyEvrkPn/2/lIaUUpRoA2gJQwiTPWSsGs/zP5SGlFKUaANoCUMIYpPKNuPJBcCUhpRSlGgDaAlDCLtUb8S+UvW/lIaUUpRoA2gJQwgkwnIrbCv7v5SGlFKUaANoCUMI3yFbfn5E87+UhpRSlGgDaAlDCGxCuqhPDwvAlIaUUpRoA2gJQwj9HE4bjBmwP5SGlFKUaANoCUMI3eZLElqnJUCUhpRSlGgDaAlDCM4P88v5ESTAlIaUUpRoA2gJQwjOD/PL+REkwJSGlFKUaANoCUMIqtXdy79lD8CUhpRSlGgDaAlDCK+Iof+M8PY/lIaUUpRoA2gJQwiRrlPu1Jj9P5SGlFKUaANoCUMI5XmAoct89T+UhpRSlGgDaAlDCFmDiFA8HPU/lIaUUpRoA2gJQwjwymv7Jnf8P5SGlFKUaANoCUMIcpRlfQg75D+UhpRSlGgDaAlDCHKUZX0IO+Q/lIaUUpRoA2gJQwjW7kzMMVvWP5SGlFKUaANoCUMI1u5MzDFb1j+UhpRSlGgDaAlDCNbuTMwxW9Y/lIaUUpRlLg==

>  <experimental dG reference units>  (1) 
kcal/mol

>  <experimental dG reference field>  (1) 
r_exp_dg

>  <kJ/mol experimental dG>  (1) 
-30.71056

>  <kcal/mol experimental dG>  (1) 
-7.34

$$$$
23469
     RDKit          3D

 41 43  0  0  1  0  0  0  0  0999 V2000
   43.4349   13.9762   16.5152 S   0  0  0  0  0  0  0  0  0  0  0  0
   43.2388   15.3847   15.4302 C   0  0  0  0  0  0  0  0  0  0  0  0
   42.3225   15.1290   14.5121 C   0  0  0  0  0  0  0  0  0  0  0  0
   41.7595   13.7729   14.6019 C   0  0  0  0  0  0  0  0  0  0  0  0
   42.1868   13.0208   15.6281 C   0  0  0  0  0  0  0  0  0  0  0  0
   43.9400   16.6164   15.7216 C   0  0  0  0  0  0  0  0  0  0  0  0
   44.3927   16.6325   16.8863 O   0  0  0  0  0  0  0  0  0  0  0  0
   44.0706   17.5599   14.9107 O   0  0  0  0  0  0  0  0  0  0  0  0
   41.8822   11.6386   16.0501 C   0  0  0  0  0  0  0  0  0  0  0  0
   40.5678   11.0458   15.8591 C   0  0  0  0  0  0  0  0  0  0  0  0
   40.3696    9.6768   16.2269 C   0  0  0  0  0  0  0  0  0  0  0  0
   41.4677    8.9015   16.8005 C   0  0  0  0  0  0  0  0  0  0  0  0
   42.7809    9.4864   17.0095 C   0  0  0  0  0  0  0  0  0  0  0  0
   42.9621   10.8634   16.6495 C   0  0  0  0  0  0  0  0  0  0  0  0
   40.5669   13.1524   13.2624 Br  0  0  0  0  0  0  0  0  0  0  0  0
   42.0383   16.0154   13.5689 O   0  0  0  0  0  0  0  0  0  0  0  0
   40.8225   16.7172   13.7275 C   0  0  0  0  0  0  0  0  0  0  0  0
   40.5922   17.4164   12.4629 C   0  0  0  0  0  0  0  0  0  0  0  0
   39.4465   17.8760   12.3022 O   0  0  0  0  0  0  0  0  0  0  0  0
   41.5197   17.5214   11.6281 O   0  0  0  0  0  0  0  0  0  0  0  0
   39.1083    9.2240   15.9963 N   0  0  0  0  0  0  0  0  0  0  0  0
   39.7940   11.6547   15.4443 H   0  0  0  0  0  0  0  0  0  0  0  0
   41.3330    7.8650   17.0689 H   0  0  0  0  0  0  0  0  0  0  0  0
   43.5917    8.9074   17.4269 H   0  0  0  0  0  0  0  0  0  0  0  0
   43.9419   11.2991   16.7823 H   0  0  0  0  0  0  0  0  0  0  0  0
   39.9904   16.0539   13.9762 H   0  0  0  0  0  0  0  0  0  0  0  0
   40.9172   17.4454   14.5358 H   0  0  0  0  0  0  0  0  0  0  0  0
   38.5558    9.8166   15.3890 H   0  0  0  0  0  0  0  0  0  0  0  0
   38.5861    8.0054   16.2434 C   0  0  0  0  0  0  0  0  0  0  0  0
   39.0000    7.2460   17.1256 O   0  0  0  0  0  0  0  0  0  0  0  0
   35.4500    6.6222   13.6227 C   0  0  0  0  0  0  0  0  0  0  0  0
   35.6869    5.9723   14.8299 C   0  0  0  0  0  0  0  0  0  0  0  0
   36.6784    6.4451   15.6852 C   0  0  0  0  0  0  0  0  0  0  0  0
   37.4493    7.5671   15.3388 C   0  0  0  0  0  0  0  0  0  0  0  0
   37.1825    8.2180   14.1195 C   0  0  0  0  0  0  0  0  0  0  0  0
   36.1830    7.7510   13.2716 C   0  0  0  0  0  0  0  0  0  0  0  0
   34.6814    6.2535   12.9591 H   0  0  0  0  0  0  0  0  0  0  0  0
   35.1068    5.1012   15.1009 H   0  0  0  0  0  0  0  0  0  0  0  0
   36.8568    5.9167   16.6129 H   0  0  0  0  0  0  0  0  0  0  0  0
   37.7487    9.0819   13.7971 H   0  0  0  0  0  0  0  0  0  0  0  0
   35.9835    8.2667   12.3434 H   0  0  0  0  0  0  0  0  0  0  0  0
  1  2  1  0
  1  5  1  0
  2  3  2  0
  2  6  1  0
  3  4  1  0
  3 16  1  0
  4  5  2  0
  4 15  1  0
  5  9  1  0
  6  7  2  0
  6  8  1  0
  9 10  2  0
  9 14  1  0
 10 11  1  0
 10 22  1  0
 11 12  2  0
 11 21  1  0
 12 13  1  0
 12 23  1  0
 13 14  2  0
 13 24  1  0
 14 25  1  0
 16 17  1  0
 17 18  1  0
 17 26  1  0
 17 27  1  0
 18 19  1  0
 18 20  2  0
 21 28  1  0
 21 29  1  0
 29 30  2  0
 29 34  1  0
 31 32  2  0
 31 36  1  0
 31 37  1  0
 32 33  1  0
 32 38  1  0
 33 34  2  0
 33 39  1  0
 34 35  1  0
 35 36  2  0
 35 40  1  0
 36 41  1  0
M  CHG  2   8  -1  19  -1
M  END
>  <r_exp_dg>  (2) 
-7.72

>  <AmberAM1BCCCache>  (2) 
gASVZgMAAAAAAABdlCiMFm51bXB5Ll9jb3JlLm11bHRpYXJyYXmUjAZzY2FsYXKUk5SMBW51bXB5lIwFZHR5cGWUk5SMAmY4lImIh5RSlChLA4wBPJROTk5K/////0r/////SwB0lGJDCD+dSUT8ktQ/lIaUUpRoA2gJQwhLKQd4EC8AwJSGlFKUaANoCUMI3LeMeIxv+j+UhpRSlGgDaAlDCKPNJ/BZJ+C/lIaUUpRoA2gJQwiQ9MA+zf39v5SGlFKUaANoCUMI3TFY6YAkJkCUhpRSlGgDaAlDCFf/jHz9SSPAlIaUUpRoA2gJQwhX/4x8/UkjwJSGlFKUaANoCUMI5HR8CNoz7j+UhpRSlGgDaAlDCFd3UrW0JwHAlIaUUpRoA2gJQwjICamagxjgP5SGlFKUaANoCUMI5Ieg57l+AMCUhpRSlGgDaAlDCGQKlu2d/va/lIaUUpRoA2gJQwhh1ukqshH5v5SGlFKUaANoCUMIRhCywQGt8r+UhpRSlGgDaAlDCIeyH8f8CwvAlIaUUpRoA2gJQwjYzV/WYoizP5SGlFKUaANoCUMIbQuj1SWiJUCUhpRSlGgDaAlDCNVrjBMlESTAlIaUUpRoA2gJQwjVa4wTJREkwJSGlFKUaANoCUMIx+IpRfRPFcCUhpRSlGgDaAlDCAAaySkAm/o/lIaUUpRoA2gJQwj95RxnFK78P5SGlFKUaANoCUMIfospXkgU9j+UhpRSlGgDaAlDCLjqoL7Mffw/lIaUUpRoA2gJQwgC1M8DVEjkP5SGlFKUaANoCUMIAtTPA1RI5D+UhpRSlGgDaAlDCPvmHZJ7Ig5AlIaUUpRoA2gJQwjxH02vSawfQJSGlFKUaANoCUMILiks2vC2HMCUhpRSlGgDaAlDCB8PGkVWzva/lIaUUpRoA2gJQwgvrgdDE6z6v5SGlFKUaANoCUMIhZOK13+G8b+UhpRSlGgDaAlDCK9jX0c5j/m/lIaUUpRoA2gJQwiFk4rXf4bxv5SGlFKUaANoCUMIL64HQxOs+r+UhpRSlGgDaAlDCKllCaKFlvc/lIaUUpRoA2gJQwgFTnXs64f4P5SGlFKUaANoCUMIivZqmRkF/D+UhpRSlGgDaAlDCIr2apkZBfw/lIaUUpRoA2gJQwgFTnXs64f4P5SGlFKUZS4=

>  <experimental dG reference units>  (2) 
kcal/mol

>  <experimental dG reference field>  (2) 
r_exp_dg

>  <kJ/mol experimental dG>  (2) 
-32.30048

>  <kcal/mol experimental dG>  (2) 
-7.72

$$$$
23477
     RDKit          3D

 43 45  0  0  1  0  0  0  0  0999 V2000
   43.4349   13.9762   16.5152 S   0  0  0  0  0  0  0  0  0  0  0  0
   43.2388   15.3847   15.4302 C   0  0  0  0  0  0  0  0  0  0  0  0
   42.3225   15.1290   14.5121 C   0  0  0  0  0  0  0  0  0  0  0  0
   41.7595   13.7729   14.6019 C   0  0  0  0  0  0  0  0  0  0  0  0
   42.1868   13.0208   15.6281 C   0  0  0  0  0  0  0  0  0  0  0  0
   43.9400   16.6164   15.7216 C   0  0  0  0  0  0  0  0  0  0  0  0
   44.3927   16.6325   16.8863 O   0  0  0  0  0  0  0  0  0  0  0  0
   44.0706   17.5599   14.9107 O   0  0  0  0  0  0  0  0  0  0  0  0
   41.8822   11.6386   16.0501 C   0  0  0  0  0  0  0  0  0  0  0  0
   40.5678   11.0458   15.8591 C   0  0  0  0  0  0  0  0  0  0  0  0
   40.3696    9.6768   16.2269 C   0  0  0  0  0  0  0  0  0  0  0  0
   41.4677    8.9015   16.8005 C   0  0  0  0  0  0  0  0  0  0  0  0
   42.7809    9.4864   17.0095 C   0  0  0  0  0  0  0  0  0  0  0  0
   42.9621   10.8634   16.6495 C   0  0  0  0  0  0  0  0  0  0  0  0
   40.5691   13.1536   13.2599 Br  0  0  0  0  0  0  0  0  0  0  0  0
   42.0383   16.0154   13.5689 O   0  0  0  0  0  0  0  0  0  0  0  0
   40.8225   16.7172   13.7275 C   0  0  0  0  0  0  0  0  0  0  0  0
   40.5922   17.4164   12.4629 C   0  0  0  0  0  0  0  0  0  0  0  0
   39.4465   17.8760   12.3022 O   0  0  0  0  0  0  0  0  0  0  0  0
   41.5197   17.5214   11.6281 O   0  0  0  0  0  0  0  0  0  0  0  0
   39.1083    9.2240   15.9963 N   0  0  0  0  0  0  0  0  0  0  0  0
   38.9061    7.8465   15.5688 C   0  0  0  0  0  0  0  0  0  0  0  0
   37.4013    7.5567   15.5940 C   0  0  0  0  0  0  0  0  0  0  0  0
   37.1093    6.1758   14.9802 C   0  0  0  0  0  0  0  0  0  0  0  0
   37.6514    6.0959   13.6587 O   0  0  0  0  0  0  0  0  0  0  0  0
   39.0680    6.2817   13.5882 C   0  0  0  0  0  0  0  0  0  0  0  0
   39.4385    7.6675   14.1389 C   0  0  0  0  0  0  0  0  0  0  0  0
   39.7920   11.6496   15.4442 H   0  0  0  0  0  0  0  0  0  0  0  0
   41.3089    7.8708   17.0771 H   0  0  0  0  0  0  0  0  0  0  0  0
   43.5905    8.9080   17.4299 H   0  0  0  0  0  0  0  0  0  0  0  0
   43.9417   11.2996   16.7829 H   0  0  0  0  0  0  0  0  0  0  0  0
   40.9172   17.4455   14.5356 H   0  0  0  0  0  0  0  0  0  0  0  0
   39.9903   16.0541   13.9762 H   0  0  0  0  0  0  0  0  0  0  0  0
   38.5645    9.8927   15.4503 H   0  0  0  0  0  0  0  0  0  0  0  0
   39.4189    7.1593   16.2462 H   0  0  0  0  0  0  0  0  0  0  0  0
   36.8540    8.3124   15.0267 H   0  0  0  0  0  0  0  0  0  0  0  0
   37.0203    7.5946   16.6150 H   0  0  0  0  0  0  0  0  0  0  0  0
   36.0325    6.0080   14.9320 H   0  0  0  0  0  0  0  0  0  0  0  0
   37.5206    5.3784   15.6027 H   0  0  0  0  0  0  0  0  0  0  0  0
   39.3895    6.1921   12.5493 H   0  0  0  0  0  0  0  0  0  0  0  0
   39.5823    5.4928   14.1413 H   0  0  0  0  0  0  0  0  0  0  0  0
   40.5213    7.7842   14.1199 H   0  0  0  0  0  0  0  0  0  0  0  0
   39.0272    8.4329   13.4785 H   0  0  0  0  0  0  0  0  0  0  0  0
  1  2  1  0
  1  5  1  0
  2  3  2  0
  2  6  1  0
  3  4  1  0
  3 16  1  0
  4  5  2  0
  4 15  1  0
  5  9  1  0
  6  7  2  0
  6  8  1  0
  9 10  2  0
  9 14  1  0
 10 11  1  0
 10 28  1  0
 11 12  2  0
 11 21  1  0
 12 13  1  0
 12 29  1  0
 13 14  2  0
 13 30  1  0
 14 31  1  0
 16 17  1  0
 17 18  1  0
 17 32  1  0
 17 33  1  0
 18 19  1  0
 18 20  2  0
 21 22  1  0
 21 34  1  0
 22 23  1  0
 22 27  1  0
 22 35  1  0
 23 24  1  0
 23 36  1  0
 23 37  1  0
 24 25  1  0
 24 38  1  0
 24 39  1  0
 25 26  1  0
 26 27  1  0
 26 40  1  0
 26 41  1  0
 27 42  1  0
 27 43  1  0
M  CHG  2   8  -1  19  -1
M  END
>  <r_exp_dg>  (3) 
-8.85

>  <AmberAM1BCCCache>  (3) 
gASVjAMAAAAAAABdlCiMFm51bXB5Ll9jb3JlLm11bHRpYXJyYXmUjAZzY2FsYXKUk5SMBW51bXB5lIwFZHR5cGWUk5SMAmY4lImIh5RSlChLA4wBPJROTk5K/////0r/////SwB0lGJDCAkgvbAME9s/lIaUUpRoA2gJQwiDoE6mgFgAwJSGlFKUaANoCUMIisEhiiNt+j+UhpRSlGgDaAlDCMGajYUJbuG/lIaUUpRoA2gJQwiT5Hu4lUD+v5SGlFKUaANoCUMIEtOKyzMkJkCUhpRSlGgDaAlDCDseLRxJSSPAlIaUUpRoA2gJQwg7Hi0cSUkjwJSGlFKUaANoCUMIT54OxLlN7T+UhpRSlGgDaAlDCDsyfO4/Pf+/lIaUUpRoA2gJQwjJubR8cYbwP5SGlFKUaANoCUMI1gNsbeJ3AMCUhpRSlGgDaAlDCIfydNXdkfe/lIaUUpRoA2gJQwgcl3w5Rzf7v5SGlFKUaANoCUMIYe1c3eiw87+UhpRSlGgDaAlDCLAtVT4xDQvAlIaUUpRoA2gJQwggmzCV116xP5SGlFKUaANoCUMIoqzVt9ihJUCUhpRSlGgDaAlDCNNK/zRvDyTAlIaUUpRoA2gJQwjTSv80bw8kwJSGlFKUaANoCUMITX3tIfmDIMCUhpRSlGgDaAlDCOej8arNrgFAlIaUUpRoA2gJQwhkP9/8k5b4v5SGlFKUaANoCUMIma+o8ZEZ+T+UhpRSlGgDaAlDCGk3aCsxZRTAlIaUUpRoA2gJQwiZr6jxkRn5P5SGlFKUaANoCUMIZD/f/JOW+L+UhpRSlGgDaAlDCAwMyoX9ifs/lIaUUpRoA2gJQwg0oPI7OKH1P5SGlFKUaANoCUMIPKsmCJEw9T+UhpRSlGgDaAlDCFcSevqdSfs/lIaUUpRoA2gJQwjL5c0JmlPkP5SGlFKUaANoCUMIy+XNCZpT5D+UhpRSlGgDaAlDCK6rehzggxFAlIaUUpRoA2gJQwhBkrH/i6jnP5SGlFKUaANoCUMIeatx0g2n5j+UhpRSlGgDaAlDCHmrcdINp+Y/lIaUUpRoA2gJQwje6LizUEbdP5SGlFKUaANoCUMI3ui4s1BG3T+UhpRSlGgDaAlDCN7ouLNQRt0/lIaUUpRoA2gJQwje6LizUEbdP5SGlFKUaANoCUMIeatx0g2n5j+UhpRSlGgDaAlDCHmrcdINp+Y/lIaUUpRlLg==

>  <experimental dG reference units>  (3) 
kcal/mol

>  <experimental dG reference field>  (3) 
r_exp_dg

>  <kJ/mol experimental dG>  (3) 
-37.0284

>  <kcal/mol experimental dG>  (3) 
-8.85

$$$$
23473
     RDKit          3D

 41 43  0  0  1  0  0  0  0  0999 V2000
   43.4349   13.9762   16.5152 S   0  0  0  0  0  0  0  0  0  0  0  0
   43.2388   15.3847   15.4302 C   0  0  0  0  0  0  0  0  0  0  0  0
   42.3225   15.1290   14.5121 C   0  0  0  0  0  0  0  0  0  0  0  0
   41.7595   13.7729   14.6019 C   0  0  0  0  0  0  0  0  0  0  0  0
   42.1868   13.0208   15.6281 C   0  0  0  0  0  0  0  0  0  0  0  0
   43.9400   16.6164   15.7216 C   0  0  0  0  0  0  0  0  0  0  0  0
   44.3927   16.6325   16.8863 O   0  0  0  0  0  0  0  0  0  0  0  0
   44.0706   17.5599   14.9107 O   0  0  0  0  0  0  0  0  0  0  0  0
   41.8822   11.6386   16.0501 C   0  0  0  0  0  0  0  0  0  0  0  0
   40.5678   11.0458   15.8591 C   0  0  0  0  0  0  0  0  0  0  0  0
   40.3696    9.6768   16.2269 C   0  0  0  0  0  0  0  0  0  0  0  0
   41.4677    8.9015   16.8005 C   0  0  0  0  0  0  0  0  0  0  0  0
   42.7809    9.4864   17.0095 C   0  0  0  0  0  0  0  0  0  0  0  0
   42.9621   10.8634   16.6495 C   0  0  0  0  0  0  0  0  0  0  0  0
   40.5696   13.1540   13.2599 Br  0  0  0  0  0  0  0  0  0  0  0  0
   42.0383   16.0154   13.5689 O   0  0  0  0  0  0  0  0  0  0  0  0
   40.8225   16.7172   13.7275 C   0  0  0  0  0  0  0  0  0  0  0  0
   40.5922   17.4164   12.4629 C   0  0  0  0  0  0  0  0  0  0  0  0
   39.4465   17.8760   12.3022 O   0  0  0  0  0  0  0  0  0  0  0  0
   41.5197   17.5214   11.6281 O   0  0  0  0  0  0  0  0  0  0  0  0
   39.1299    9.1279   15.9797 O   0  0  0  0  0  0  0  0  0  0  0  0
   39.0662    7.7180   15.7409 C   0  0  0  0  0  0  0  0  0  0  0  0
   39.7847   11.6306   15.4332 H   0  0  0  0  0  0  0  0  0  0  0  0
   41.3197    7.8685   17.0770 H   0  0  0  0  0  0  0  0  0  0  0  0
   43.5916    8.9086   17.4294 H   0  0  0  0  0  0  0  0  0  0  0  0
   43.9418   11.2995   16.7829 H   0  0  0  0  0  0  0  0  0  0  0  0
   40.9173   17.4454   14.5357 H   0  0  0  0  0  0  0  0  0  0  0  0
   39.9904   16.0540   13.9763 H   0  0  0  0  0  0  0  0  0  0  0  0
   39.9188    7.3712   15.1521 H   0  0  0  0  0  0  0  0  0  0  0  0
   39.0851    7.1915   16.6970 H   0  0  0  0  0  0  0  0  0  0  0  0
   35.5648    6.6235   13.4827 C   0  0  0  0  0  0  0  0  0  0  0  0
   36.0188    5.7903   14.5028 C   0  0  0  0  0  0  0  0  0  0  0  0
   37.1413    6.1543   15.2429 C   0  0  0  0  0  0  0  0  0  0  0  0
   37.8078    7.3515   14.9615 C   0  0  0  0  0  0  0  0  0  0  0  0
   37.3417    8.1832   13.9379 C   0  0  0  0  0  0  0  0  0  0  0  0
   36.2168    7.8220   13.2014 C   0  0  0  0  0  0  0  0  0  0  0  0
   34.6938    6.3396   12.9104 H   0  0  0  0  0  0  0  0  0  0  0  0
   35.5042    4.8639   14.7172 H   0  0  0  0  0  0  0  0  0  0  0  0
   37.4956    5.4991   16.0270 H   0  0  0  0  0  0  0  0  0  0  0  0
   37.8509    9.1120   13.7154 H   0  0  0  0  0  0  0  0  0  0  0  0
   35.8546    8.4752   12.4202 H   0  0  0  0  0  0  0  0  0  0  0  0
  1  2  1  0
  1  5  1  0
  2  3  2  0
  2  6  1  0
  3  4  1  0
  3 16  1  0
  4  5  2  0
  4 15  1  0
  5  9  1  0
  6  7  2  0
  6  8  1  0
  9 10  2  0
  9 14  1  0
 10 11  1  0
 10 23  1  0
 11 12  2  0
 11 21  1  0
 12 13  1  0
 12 24  1  0
 13 14  2  0
 13 25  1  0
 14 26  1  0
 16 17  1  0
 17 18  1  0
 17 27  1  0
 17 28  1  0
 18 19  1  0
 18 20  2  0
 21 22  1  0
 22 29  1  0
 22 30  1  0
 22 34  1  0
 31 32  2  0
 31 36  1  0
 31 37  1  0
 32 33  1  0
 32 38  1  0
 33 34  2  0
 33 39  1  0
 34 35  1  0
 35 36  2  0
 35 40  1  0
 36 41  1  0
M  CHG  2   8  -1  19  -1
M  END
>  <r_exp_dg>  (4) 
-8.39

>  <AmberAM1BCCCache>  (4) 
gASVZgMAAAAAAABdlCiMFm51bXB5Ll9jb3JlLm11bHRpYXJyYXmUjAZzY2FsYXKUk5SMBW51bXB5lIwFZHR5cGWUk5SMAmY4lImIh5RSlChLA4wBPJROTk5K/////0r/////SwB0lGJDCM84ejWzTt4/lIaUUpRoA2gJQwgc9wZhazEAwJSGlFKUaANoCUMIriWVVUcK+j+UhpRSlGgDaAlDCHX7HuVUkeC/lIaUUpRoA2gJQwiOeCxb6fP+v5SGlFKUaANoCUMIaD4YL+ojJkCUhpRSlGgDaAlDCPrzrUyCPiPAlIaUUpRoA2gJQwj6861Mgj4jwJSGlFKUaANoCUMIyRddqKus7z+UhpRSlGgDaAlDCKEhJS0qS/y/lIaUUpRoA2gJQwiN57lZzU7yP5SGlFKUaANoCUMIru1HSz2nBMCUhpRSlGgDaAlDCGfCrcyl4fW/lIaUUpRoA2gJQwhgWlVHzgf6v5SGlFKUaANoCUMIdaKp5EYS87+UhpRSlGgDaAlDCFiAH7BXDgvAlIaUUpRoA2gJQwhJX6YuiziwP5SGlFKUaANoCUMIYpdyEJinJUCUhpRSlGgDaAlDCJafRFO3DiTAlIaUUpRoA2gJQwiWn0RTtw4kwJSGlFKUaANoCUMIZwW3zJ71D8CUhpRSlGgDaAlDCBwJQWmpeABAlIaUUpRoA2gJQwhxNw03fWr9P5SGlFKUaANoCUMICf61krt+9T+UhpRSlGgDaAlDCAn+tZK7fvU/lIaUUpRoA2gJQwhaSh2VXqn8P5SGlFKUaANoCUMIvJzQX+g+5D+UhpRSlGgDaAlDCLyc0F/oPuQ/lIaUUpRoA2gJQwiU9pzelqngP5SGlFKUaANoCUMIlPac3pap4D+UhpRSlGgDaAlDCOtQTZhdaPq/lIaUUpRoA2gJQwjVY132Pqf5v5SGlFKUaANoCUMIIscxJF6x9b+UhpRSlGgDaAlDCJBm8lKrrO6/lIaUUpRoA2gJQwgixzEkXrH1v5SGlFKUaANoCUMI1WNd9j6n+b+UhpRSlGgDaAlDCKrhnYVpoPY/lIaUUpRoA2gJQwgGygnQz5H3P5SGlFKUaANoCUMI0W17JUU/+z+UhpRSlGgDaAlDCNFteyVFP/s/lIaUUpRoA2gJQwgGygnQz5H3P5SGlFKUZS4=

>  <experimental dG reference units>  (4) 
kcal/mol

>  <experimental dG reference field>  (4) 
r_exp_dg

>  <kJ/mol experimental dG>  (4) 
-35.10376

>  <kcal/mol experimental dG>  (4) 
-8.39

$$$$
23471
     RDKit          3D

 35 36  0  0  1  0  0  0  0  0999 V2000
   43.4349   13.9762   16.5152 S   0  0  0  0  0  0  0  0  0  0  0  0
   43.2388   15.3847   15.4302 C   0  0  0  0  0  0  0  0  0  0  0  0
   42.3225   15.1290   14.5121 C   0  0  0  0  0  0  0  0  0  0  0  0
   41.7595   13.7729   14.6019 C   0  0  0  0  0  0  0  0  0  0  0  0
   42.1868   13.0208   15.6281 C   0  0  0  0  0  0  0  0  0  0  0  0
   43.9400   16.6164   15.7216 C   0  0  0  0  0  0  0  0  0  0  0  0
   44.3927   16.6325   16.8863 O   0  0  0  0  0  0  0  0  0  0  0  0
   44.0706   17.5599   14.9107 O   0  0  0  0  0  0  0  0  0  0  0  0
   41.8822   11.6386   16.0501 C   0  0  0  0  0  0  0  0  0  0  0  0
   40.5678   11.0458   15.8591 C   0  0  0  0  0  0  0  0  0  0  0  0
   40.3696    9.6768   16.2269 C   0  0  0  0  0  0  0  0  0  0  0  0
   41.4677    8.9015   16.8005 C   0  0  0  0  0  0  0  0  0  0  0  0
   42.7809    9.4864   17.0095 C   0  0  0  0  0  0  0  0  0  0  0  0
   42.9621   10.8634   16.6495 C   0  0  0  0  0  0  0  0  0  0  0  0
   40.5671   13.1518   13.2624 Br  0  0  0  0  0  0  0  0  0  0  0  0
   42.0383   16.0154   13.5689 O   0  0  0  0  0  0  0  0  0  0  0  0
   40.8225   16.7172   13.7275 C   0  0  0  0  0  0  0  0  0  0  0  0
   40.5922   17.4164   12.4629 C   0  0  0  0  0  0  0  0  0  0  0  0
   39.4465   17.8760   12.3022 O   0  0  0  0  0  0  0  0  0  0  0  0
   41.5197   17.5214   11.6281 O   0  0  0  0  0  0  0  0  0  0  0  0
   39.1083    9.2240   15.9963 N   0  0  0  0  0  0  0  0  0  0  0  0
   39.7937   11.6531   15.4429 H   0  0  0  0  0  0  0  0  0  0  0  0
   41.3245    7.8664   17.0713 H   0  0  0  0  0  0  0  0  0  0  0  0
   43.5914    8.9077   17.4280 H   0  0  0  0  0  0  0  0  0  0  0  0
   43.9419   11.2992   16.7827 H   0  0  0  0  0  0  0  0  0  0  0  0
   40.9170   17.4457   14.5355 H   0  0  0  0  0  0  0  0  0  0  0  0
   39.9903   16.0541   13.9760 H   0  0  0  0  0  0  0  0  0  0  0  0
   38.5142    9.8527   15.4708 H   0  0  0  0  0  0  0  0  0  0  0  0
   38.5316    8.0044   16.2959 C   0  0  0  0  0  0  0  0  0  0  0  0
   39.0081    7.0863   16.9664 O   0  0  0  0  0  0  0  0  0  0  0  0
   37.3220    7.9682   15.7230 O   0  0  0  0  0  0  0  0  0  0  0  0
   36.5168    6.7984   15.7967 C   0  0  0  0  0  0  0  0  0  0  0  0
   35.6082    6.9381   15.2111 H   0  0  0  0  0  0  0  0  0  0  0  0
   36.2260    6.5854   16.8264 H   0  0  0  0  0  0  0  0  0  0  0  0
   37.0408    5.9290   15.3965 H   0  0  0  0  0  0  0  0  0  0  0  0
  1  2  1  0
  1  5  1  0
  2  3  2  0
  2  6  1  0
  3  4  1  0
  3 16  1  0
  4  5  2  0
  4 15  1  0
  5  9  1  0
  6  7  2  0
  6  8  1  0
  9 10  2  0
  9 14  1  0
 10 11  1  0
 10 22  1  0
 11 12  2  0
 11 21  1  0
 12 13  1  0
 12 23  1  0
 13 14  2  0
 13 24  1  0
 14 25  1  0
 16 17  1  0
 17 18  1  0
 17 26  1  0
 17 27  1  0
 18 19  1  0
 18 20  2  0
 21 28  1  0
 21 29  1  0
 29 30  2  0
 29 31  1  0
 31 32  1  0
 32 33  1  0
 32 34  1  0
 32 35  1  0
M  CHG  2   8  -1  19  -1
M  END
>  <r_exp_dg>  (5) 
-7.75

>  <AmberAM1BCCCache>  (5) 
gASV9AIAAAAAAABdlCiMFm51bXB5Ll9jb3JlLm11bHRpYXJyYXmUjAZzY2FsYXKUk5SMBW51bXB5lIwFZHR5cGWUk5SMAmY4lImIh5RSlChLA4wBPJROTk5K/////0r/////SwB0lGJDCC4XJmTPg9c/lIaUUpRoA2gJQwj0ksWQYRkAwJSGlFKUaANoCUMIQ+mTnqJq+j+UhpRSlGgDaAlDCNhqGaQtMeC/lIaUUpRoA2gJQwiFqyVjHfT+v5SGlFKUaANoCUMICRgZruMjJkCUhpRSlGgDaAlDCMKZvMKRRCPAlIaUUpRoA2gJQwjCmbzCkUQjwJSGlFKUaANoCUMIxsR69iTr7j+UhpRSlGgDaAlDCDDvnNQugQDAlIaUUpRoA2gJQwjRJK9F5RjdP5SGlFKUaANoCUMI0+zaqFKZAMCUhpRSlGgDaAlDCLndEh9A0/a/lIaUUpRoA2gJQwgqs24LxYX4v5SGlFKUaANoCUMI4N6qm+ux8r+UhpRSlGgDaAlDCDEc3t9N9grAlIaUUpRoA2gJQwjdLxOvSjWwP5SGlFKUaANoCUMImvFjmoihJUCUhpRSlGgDaAlDCEAGvFm5CyTAlIaUUpRoA2gJQwhABrxZuQskwJSGlFKUaANoCUMI4zkGTBXnE8CUhpRSlGgDaAlDCH04wPE0V/s/lIaUUpRoA2gJQwjZICw8m0j8P5SGlFKUaANoCUMIbrMo1e1v9j+UhpRSlGgDaAlDCKkSoDVy2fw/lIaUUpRoA2gJQwgUMlr4x27kP5SGlFKUaANoCUMIFDJa+Mdu5D+UhpRSlGgDaAlDCPNgR2zYWQ9AlIaUUpRoA2gJQwizGwbGQGYhQJSGlFKUaANoCUMIporLxsXpG8CUhpRSlGgDaAlDCJZB4SZCoxXAlIaUUpRoA2gJQwjWcYVjcRj7P5SGlFKUaANoCUMIwEzonb9Y4D+UhpRSlGgDaAlDCMBM6J2/WOA/lIaUUpRoA2gJQwjATOidv1jgP5SGlFKUZS4=

>  <experimental dG reference units>  (5) 
kcal/mol

>  <experimental dG reference field>  (5) 
r_exp_dg

>  <kJ/mol experimental dG>  (5) 
-32.426

>  <kcal/mol experimental dG>  (5) 
-7.75

$$$$
20669
     RDKit          3D

 42 44  0  0  1  0  0  0  0  0999 V2000
   43.4349   13.9762   16.5152 S   0  0  0  0  0  0  0  0  0  0  0  0
   43.2388   15.3847   15.4302 C   0  0  0  0  0  0  0  0  0  0  0  0
   42.3225   15.1290   14.5121 C   0  0  0  0  0  0  0  0  0  0  0  0
   41.7595   13.7729   14.6019 C   0  0  0  0  0  0  0  0  0  0  0  0
   42.1868   13.0208   15.6281 C   0  0  0  0  0  0  0  0  0  0  0  0
   43.9400   16.6164   15.7216 C   0  0  0  0  0  0  0  0  0  0  0  0
   44.3927   16.6325   16.8863 O   0  0  0  0  0  0  0  0  0  0  0  0
   44.0706   17.5599   14.9107 O   0  0  0  0  0  0  0  0  0  0  0  0
   41.8822   11.6386   16.0501 C   0  0  0  0  0  0  0  0  0  0  0  0
   40.5678   11.0458   15.8591 C   0  0  0  0  0  0  0  0  0  0  0  0
   40.3696    9.6768   16.2269 C   0  0  0  0  0  0  0  0  0  0  0  0
   41.4677    8.9015   16.8005 C   0  0  0  0  0  0  0  0  0  0  0  0
   42.7809    9.4864   17.0095 C   0  0  0  0  0  0  0  0  0  0  0  0
   42.9621   10.8634   16.6495 C   0  0  0  0  0  0  0  0  0  0  0  0
   40.5693   13.1554   13.2593 Br  0  0  0  0  0  0  0  0  0  0  0  0
   42.0383   16.0154   13.5689 O   0  0  0  0  0  0  0  0  0  0  0  0
   40.8225   16.7172   13.7275 C   0  0  0  0  0  0  0  0  0  0  0  0
   40.5922   17.4164   12.4629 C   0  0  0  0  0  0  0  0  0  0  0  0
   39.4465   17.8760   12.3022 O   0  0  0  0  0  0  0  0  0  0  0  0
   41.5197   17.5214   11.6281 O   0  0  0  0  0  0  0  0  0  0  0  0
   39.1083    9.2240   15.9963 N   0  0  0  0  0  0  0  0  0  0  0  0
   38.6498    7.8606   16.2522 C   0  0  0  0  0  0  0  0  0  0  0  0
   39.7916   11.6486   15.4432 H   0  0  0  0  0  0  0  0  0  0  0  0
   41.3270    7.8677   17.0712 H   0  0  0  0  0  0  0  0  0  0  0  0
   43.5914    8.9073   17.4273 H   0  0  0  0  0  0  0  0  0  0  0  0
   43.9419   11.2993   16.7823 H   0  0  0  0  0  0  0  0  0  0  0  0
   40.9173   17.4455   14.5357 H   0  0  0  0  0  0  0  0  0  0  0  0
   39.9903   16.0541   13.9763 H   0  0  0  0  0  0  0  0  0  0  0  0
   38.5055    9.8294   15.4372 H   0  0  0  0  0  0  0  0  0  0  0  0
   39.3680    7.2566   16.8053 H   0  0  0  0  0  0  0  0  0  0  0  0
   37.7611    7.9093   16.8842 H   0  0  0  0  0  0  0  0  0  0  0  0
   37.6106    5.7904   12.6247 C   0  0  0  0  0  0  0  0  0  0  0  0
   38.9382    5.8164   13.0478 C   0  0  0  0  0  0  0  0  0  0  0  0
   39.2782    6.5002   14.2127 C   0  0  0  0  0  0  0  0  0  0  0  0
   38.2904    7.1593   14.9499 C   0  0  0  0  0  0  0  0  0  0  0  0
   36.9617    7.1407   14.5113 C   0  0  0  0  0  0  0  0  0  0  0  0
   36.6214    6.4549   13.3476 C   0  0  0  0  0  0  0  0  0  0  0  0
   37.3478    5.2550   11.7234 H   0  0  0  0  0  0  0  0  0  0  0  0
   39.7043    5.3075   12.4790 H   0  0  0  0  0  0  0  0  0  0  0  0
   40.3080    6.5198   14.5435 H   0  0  0  0  0  0  0  0  0  0  0  0
   36.1921    7.6534   15.0726 H   0  0  0  0  0  0  0  0  0  0  0  0
   35.5941    6.4373   13.0115 H   0  0  0  0  0  0  0  0  0  0  0  0
  1  2  1  0
  1  5  1  0
  2  3  2  0
  2  6  1  0
  3  4  1  0
  3 16  1  0
  4  5  2  0
  4 15  1  0
  5  9  1  0
  6  7  2  0
  6  8  1  0
  9 10  2  0
  9 14  1  0
 10 11  1  0
 10 23  1  0
 11 12  2  0
 11 21  1  0
 12 13  1  0
 12 24  1  0
 13 14  2  0
 13 25  1  0
 14 26  1  0
 16 17  1  0
 17 18  1  0
 17 27  1  0
 17 28  1  0
 18 19  1  0
 18 20  2  0
 21 22  1  0
 21 29  1  0
 22 30  1  0
 22 31  1  0
 22 35  1  0
 32 33  2  0
 32 37  1  0
 32 38  1  0
 33 34  1  0
 33 39  1  0
 34 35  2  0
 34 40  1  0
 35 36  1  0
 36 37  2  0
 36 41  1  0
 37 42  1  0
M  CHG  2   8  -1  19  -1
M  END
>  <r_exp_dg>  (6) 
-8.61

>  <AmberAM1BCCCache>  (6) 
gASVeQMAAAAAAABdlCiMFm51bXB5Ll9jb3JlLm11bHRpYXJyYXmUjAZzY2FsYXKUk5SMBW51bXB5lIwFZHR5cGWUk5SMAmY4lImIh5RSlChLA4wBPJROTk5K/////0r/////SwB0lGJDCN1Y6pmSC9k/lIaUUpRoA2gJQwhKAQV7+EgAwJSGlFKUaANoCUMI3QeRcrw7+j+UhpRSlGgDaAlDCCwkF02J7+C/lIaUUpRoA2gJQwhKqUCcVQH+v5SGlFKUaANoCUMIRTuo3Q8kJkCUhpRSlGgDaAlDCO71PIhuSiPAlIaUUpRoA2gJQwju9TyIbkojwJSGlFKUaANoCUMIEu9kQHdO7z+UhpRSlGgDaAlDCIZd3L7FsADAlIaUUpRoA2gJQwgvuWdEPSnzP5SGlFKUaANoCUMImzB2f257AsCUhpRSlGgDaAlDCAfSJakHQfa/lIaUUpRoA2gJQwgCas0jMGf6v5SGlFKUaANoCUMI0LalGGFB87+UhpRSlGgDaAlDCOSM3/XADQvAlIaUUpRoA2gJQwjkzaR2YkuwP5SGlFKUaANoCUMI1hTzybShJUCUhpRSlGgDaAlDCCEixJmaFCTAlIaUUpRoA2gJQwghIsSZmhQkwJSGlFKUaANoCUMImY56l3/GIMCUhpRSlGgDaAlDCITLK+TIeARAlIaUUpRoA2gJQwjRW0EdB/j6P5SGlFKUaANoCUMII/PBDRLv9D+UhpRSlGgDaAlDCCPzwQ0S7/Q/lIaUUpRoA2gJQwi4OqW4/En8P5SGlFKUaANoCUMIkGrQSENB5D+UhpRSlGgDaAlDCJBq0EhDQeQ/lIaUUpRoA2gJQwh/bd4ydRgSQJSGlFKUaANoCUMIl9Iozhob4D+UhpRSlGgDaAlDCJfSKM4aG+A/lIaUUpRoA2gJQwgyeFkqWdb5v5SGlFKUaANoCUMIj3obVjW++b+UhpRSlGgDaAlDCAfSJakHQfa/lIaUUpRoA2gJQwhFK13QHafwv5SGlFKUaANoCUMIB9IlqQdB9r+UhpRSlGgDaAlDCI96G1Y1vvm/lIaUUpRoA2gJQwjaw5mi3tH2P5SGlFKUaANoCUMI77CJRP2S9z+UhpRSlGgDaAlDCIxgxXS/x/o/lIaUUpRoA2gJQwiMYMV0v8f6P5SGlFKUaANoCUMI77CJRP2S9z+UhpRSlGUu

>  <experimental dG reference units>  (6) 
kcal/mol

>  <experimental dG reference field>  (6) 
r_exp_dg

>  <kJ/mol experimental dG>  (6) 
-36.02424

>  <kcal/mol experimental dG>  (6) 
-8.61

$$$$
23474
     RDKit          3D

 48 50  0  0  1  0  0  0  0  0999 V2000
   43.4349   13.9762   16.5152 S   0  0  0  0  0  0  0  0  0  0  0  0
   43.2388   15.3847   15.4302 C   0  0  0  0  0  0  0  0  0  0  0  0
   42.3225   15.1290   14.5121 C   0  0  0  0  0  0  0  0  0  0  0  0
   41.7595   13.7729   14.6019 C   0  0  0  0  0  0  0  0  0  0  0  0
   42.1868   13.0208   15.6281 C   0  0  0  0  0  0  0  0  0  0  0  0
   43.9400   16.6164   15.7216 C   0  0  0  0  0  0  0  0  0  0  0  0
   44.3927   16.6325   16.8863 O   0  0  0  0  0  0  0  0  0  0  0  0
   44.0706   17.5599   14.9107 O   0  0  0  0  0  0  0  0  0  0  0  0
   41.8822   11.6386   16.0501 C   0  0  0  0  0  0  0  0  0  0  0  0
   40.5678   11.0458   15.8591 C   0  0  0  0  0  0  0  0  0  0  0  0
   40.3696    9.6768   16.2269 C   0  0  0  0  0  0  0  0  0  0  0  0
   41.4677    8.9015   16.8005 C   0  0  0  0  0  0  0  0  0  0  0  0
   42.7809    9.4864   17.0095 C   0  0  0  0  0  0  0  0  0  0  0  0
   42.9621   10.8634   16.6495 C   0  0  0  0  0  0  0  0  0  0  0  0
   40.5694   13.1541   13.2596 Br  0  0  0  0  0  0  0  0  0  0  0  0
   42.0383   16.0154   13.5689 O   0  0  0  0  0  0  0  0  0  0  0  0
   40.8225   16.7172   13.7275 C   0  0  0  0  0  0  0  0  0  0  0  0
   40.5922   17.4164   12.4629 C   0  0  0  0  0  0  0  0  0  0  0  0
   39.4465   17.8760   12.3022 O   0  0  0  0  0  0  0  0  0  0  0  0
   41.5197   17.5214   11.6281 O   0  0  0  0  0  0  0  0  0  0  0  0
   39.1083    9.2240   15.9963 N   0  0  0  0  0  0  0  0  0  0  0  0
   38.9402    7.7788   15.8475 C   0  0  0  0  0  0  0  0  0  0  0  0
   39.7907   11.6494   15.4459 H   0  0  0  0  0  0  0  0  0  0  0  0
   41.3141    7.8698   17.0771 H   0  0  0  0  0  0  0  0  0  0  0  0
   43.5906    8.9080   17.4296 H   0  0  0  0  0  0  0  0  0  0  0  0
   43.9418   11.2995   16.7829 H   0  0  0  0  0  0  0  0  0  0  0  0
   39.9904   16.0540   13.9763 H   0  0  0  0  0  0  0  0  0  0  0  0
   40.9173   17.4454   14.5358 H   0  0  0  0  0  0  0  0  0  0  0  0
   38.5997    9.8041   15.3265 H   0  0  0  0  0  0  0  0  0  0  0  0
   39.7003    7.3921   15.1636 H   0  0  0  0  0  0  0  0  0  0  0  0
   39.1515    7.2988   16.8053 H   0  0  0  0  0  0  0  0  0  0  0  0
   36.7953    7.8551   15.9430 H   0  0  0  0  0  0  0  0  0  0  0  0
   35.9870    5.3571   14.9258 C   0  0  0  0  0  0  0  0  0  0  0  0
   37.3442    5.8308   15.4847 C   0  0  0  0  0  0  0  0  0  0  0  0
   37.5512    7.3591   15.3303 C   0  0  0  0  0  0  0  0  0  0  0  0
   37.3376    7.7864   13.8542 C   0  0  0  0  0  0  0  0  0  0  0  0
   35.9839    7.3091   13.3034 C   0  0  0  0  0  0  0  0  0  0  0  0
   35.7926    5.7910   13.4613 C   0  0  0  0  0  0  0  0  0  0  0  0
   35.1810    5.7690   15.5357 H   0  0  0  0  0  0  0  0  0  0  0  0
   35.9060    4.2723   15.0080 H   0  0  0  0  0  0  0  0  0  0  0  0
   38.1466    5.2999   14.9686 H   0  0  0  0  0  0  0  0  0  0  0  0
   37.4224    5.5475   16.5356 H   0  0  0  0  0  0  0  0  0  0  0  0
   37.4000    8.8721   13.7623 H   0  0  0  0  0  0  0  0  0  0  0  0
   38.1407    7.3850   13.2338 H   0  0  0  0  0  0  0  0  0  0  0  0
   35.2021    7.8248   13.8511 H   0  0  0  0  0  0  0  0  0  0  0  0
   35.8690    7.6059   12.2629 H   0  0  0  0  0  0  0  0  0  0  0  0
   36.5057    5.2648   12.8244 H   0  0  0  0  0  0  0  0  0  0  0  0
   34.7997    5.5007   13.1145 H   0  0  0  0  0  0  0  0  0  0  0  0
  1  2  1  0
  1  5  1  0
  2  3  2  0
  2  6  1  0
  3  4  1  0
  3 16  1  0
  4  5  2  0
  4 15  1  0
  5  9  1  0
  6  7  2  0
  6  8  1  0
  9 10  2  0
  9 14  1  0
 10 11  1  0
 10 23  1  0
 11 12  2  0
 11 21  1  0
 12 13  1  0
 12 24  1  0
 13 14  2  0
 13 25  1  0
 14 26  1  0
 16 17  1  0
 17 18  1  0
 17 27  1  0
 17 28  1  0
 18 19  1  0
 18 20  2  0
 21 22  1  0
 21 29  1  0
 22 30  1  0
 22 31  1  0
 22 35  1  0
 32 35  1  0
 33 34  1  0
 33 38  1  0
 33 39  1  0
 33 40  1  0
 34 35  1  0
 34 41  1  0
 34 42  1  0
 35 36  1  0
 36 37  1  0
 36 43  1  0
 36 44  1  0
 37 38  1  0
 37 45  1  0
 37 46  1  0
 38 47  1  0
 38 48  1  0
M  CHG  2   8  -1  19  -1
M  END
>  <r_exp_dg>  (7) 
-9.11

>  <AmberAM1BCCCache>  (7) 
gASV6wMAAAAAAABdlCiMFm51bXB5Ll9jb3JlLm11bHRpYXJyYXmUjAZzY2FsYXKUk5SMBW51bXB5lIwFZHR5cGWUk5SMAmY4lImIh5RSlChLA4wBPJROTk5K/////0r/////SwB0lGJDCGhqGCsqY9o/lIaUUpRoA2gJQwhjA1jr7HQAwJSGlFKUaANoCUMI9sdj9Lo6+j+UhpRSlGgDaAlDCBVaXqVK2eG/lIaUUpRoA2gJQwidYHxViFT9v5SGlFKUaANoCUMIkHmyqyQlJkCUhpRSlGgDaAlDCJ9dijKTTSPAlIaUUpRoA2gJQwifXYoyk00jwJSGlFKUaANoCUMIplQfC2ZR7j+UhpRSlGgDaAlDCJh9KbpyN/6/lIaUUpRoA2gJQwjy7hstKZf0P5SGlFKUaANoCUMISoS3btF7A8CUhpRSlGgDaAlDCJ274FDinfW/lIaUUpRoA2gJQwjdeKViumf+v5SGlFKUaANoCUMIVBG+z3A99L+UhpRSlGgDaAlDCHkqNIllJgvAlIaUUpRoA2gJQwilO6pLxwqyP5SGlFKUaANoCUMI2WwtmpShJUCUhpRSlGgDaAlDCB/Kicm6FCTAlIaUUpRoA2gJQwgfyonJuhQkwJSGlFKUaANoCUMIJwPgwgnJIMCUhpRSlGgDaAlDCGbJj9qRNwBAlIaUUpRoA2gJQwjbjHGuOpb8P5SGlFKUaANoCUMIrPOfhOFm9D+UhpRSlGgDaAlDCLG8nD6BjfQ/lIaUUpRoA2gJQwjewB1xJoP6P5SGlFKUaANoCUMIB+bx9Idv5D+UhpRSlGgDaAlDCAfm8fSHb+Q/lIaUUpRoA2gJQwjNMiVd8j4RQJSGlFKUaANoCUMIr8aCZMGk4z+UhpRSlGgDaAlDCK/GgmTBpOM/lIaUUpRoA2gJQwgV1jgaGx3nP5SGlFKUaANoCUMIOvaGUhj167+UhpRSlGgDaAlDCGNyGeUBF+u/lIaUUpRoA2gJQwitYDM2UeHvv5SGlFKUaANoCUMIY3IZ5QEX67+UhpRSlGgDaAlDCDr2hlIY9eu/lIaUUpRoA2gJQwj+jAQeEBLsv5SGlFKUaANoCUMItfeNR7Hg2j+UhpRSlGgDaAlDCLX3jUex4No/lIaUUpRoA2gJQwi2IS82GVTfP5SGlFKUaANoCUMItiEvNhlU3z+UhpRSlGgDaAlDCLYhLzYZVN8/lIaUUpRoA2gJQwi2IS82GVTfP5SGlFKUaANoCUMItfeNR7Hg2j+UhpRSlGgDaAlDCLX3jUex4No/lIaUUpRoA2gJQwiedU2u3uXXP5SGlFKUaANoCUMInnVNrt7l1z+UhpRSlGUu

>  <experimental dG reference units>  (7) 
kcal/mol

>  <experimental dG reference field>  (7) 
r_exp_dg

>  <kJ/mol experimental dG>  (7) 
-38.11624

>  <kcal/mol experimental dG>  (7) 
-9.11

$$$$
23466
     RDKit          3D

 29 30  0  0  1  0  0  0  0  0999 V2000
   43.4349   13.9762   16.5152 S   0  0  0  0  0  0  0  0  0  0  0  0
   43.2388   15.3847   15.4302 C   0  0  0  0  0  0  0  0  0  0  0  0
   42.3225   15.1290   14.5121 C   0  0  0  0  0  0  0  0  0  0  0  0
   41.7595   13.7729   14.6019 C   0  0  0  0  0  0  0  0  0  0  0  0
   42.1868   13.0208   15.6281 C   0  0  0  0  0  0  0  0  0  0  0  0
   43.9400   16.6164   15.7216 C   0  0  0  0  0  0  0  0  0  0  0  0
   44.3927   16.6325   16.8863 O   0  0  0  0  0  0  0  0  0  0  0  0
   44.0706   17.5599   14.9107 O   0  0  0  0  0  0  0  0  0  0  0  0
   41.8822   11.6386   16.0501 C   0  0  0  0  0  0  0  0  0  0  0  0
   40.5678   11.0458   15.8591 C   0  0  0  0  0  0  0  0  0  0  0  0
   40.3696    9.6768   16.2269 C   0  0  0  0  0  0  0  0  0  0  0  0
   41.4677    8.9015   16.8005 C   0  0  0  0  0  0  0  0  0  0  0  0
   42.7809    9.4864   17.0095 C   0  0  0  0  0  0  0  0  0  0  0  0
   42.9621   10.8634   16.6495 C   0  0  0  0  0  0  0  0  0  0  0  0
   40.6376   13.2123   13.2254 Br  0  0  0  0  0  0  0  0  0  0  0  0
   42.0383   16.0154   13.5689 O   0  0  0  0  0  0  0  0  0  0  0  0
   40.8225   16.7172   13.7275 C   0  0  0  0  0  0  0  0  0  0  0  0
   40.5922   17.4164   12.4629 C   0  0  0  0  0  0  0  0  0  0  0  0
   39.4465   17.8760   12.3022 O   0  0  0  0  0  0  0  0  0  0  0  0
   41.5198   17.5214   11.6281 O   0  0  0  0  0  0  0  0  0  0  0  0
   39.1083    9.2240   15.9963 N   0  0  0  0  0  0  0  0  0  0  0  0
   39.7636   11.6369   15.4467 H   0  0  0  0  0  0  0  0  0  0  0  0
   41.3123    7.8698   17.0795 H   0  0  0  0  0  0  0  0  0  0  0  0
   43.5792    8.8876   17.4226 H   0  0  0  0  0  0  0  0  0  0  0  0
   43.9217   11.3245   16.8308 H   0  0  0  0  0  0  0  0  0  0  0  0
   40.9276   17.4466   14.5306 H   0  0  0  0  0  0  0  0  0  0  0  0
   40.0143   16.0066   13.9007 H   0  0  0  0  0  0  0  0  0  0  0  0
   38.3236    9.8556   16.0703 H   0  0  0  0  0  0  0  0  0  0  0  0
   38.9561    8.2562   15.7510 H   0  0  0  0  0  0  0  0  0  0  0  0
  1  2  1  0
  1  5  1  0
  2  3  2  0
  2  6  1  0
  3  4  1  0
  3 16  1  0
  4  5  2  0
  4 15  1  0
  5  9  1  0
  6  7  2  0
  6  8  1  0
  9 10  2  0
  9 14  1  0
 10 11  1  0
 10 22  1  0
 11 12  2  0
 11 21  1  0
 12 13  1  0
 12 23  1  0
 13 14  2  0
 13 24  1  0
 14 25  1  0
 16 17  1  0
 17 18  1  0
 17 26  1  0
 17 27  1  0
 18 19  1  0
 18 20  2  0
 21 28  1  0
 21 29  1  0
M  CHG  2   8  -1  19  -1
M  END
>  <r_exp_dg>  (8) 
-7.85

>  <AmberAM1BCCCache>  (8) 
gASVggIAAAAAAABdlCiMFm51bXB5Ll9jb3JlLm11bHRpYXJyYXmUjAZzY2FsYXKUk5SMBW51bXB5lIwFZHR5cGWUk5SMAmY4lImIh5RSlChLA4wBPJROTk5K/////0r/////SwB0lGJDCLdOfynkGNk/lIaUUpRoA2gJQwgyYFAdcl8AwJSGlFKUaANoCUMIU0V21hA/+j+UhpRSlGgDaAlDCMufRNZvSeG/lIaUUpRoA2gJQwhIdWPncZ39v5SGlFKUaANoCUMI9OIkanokJkCUhpRSlGgDaAlDCKjNz/AMUCPAlIaUUpRoA2gJQwiozc/wDFAjwJSGlFKUaANoCUMI/mkvCCBV7z+UhpRSlGgDaAlDCFa14d2qDwHAlIaUUpRoA2gJQwhKDuFdKzvyP5SGlFKUaANoCUMI9X5z7+I6A8CUhpRSlGgDaAlDCMKizEvcrPW/lIaUUpRoA2gJQwigGdhh+iT7v5SGlFKUaANoCUMIoHQ8XVRu87+UhpRSlGgDaAlDCMvrKpg6JAvAlIaUUpRoA2gJQwimWbg8I4WzP5SGlFKUaANoCUMIhbxvVh+iJUCUhpRSlGgDaAlDCHN6Rw0wFCTAlIaUUpRoA2gJQwhzekcNMBQkwJSGlFKUaANoCUMIkWTgK9roIsCUhpRSlGgDaAlDCAOeqtgTy/o/lIaUUpRoA2gJQwgOOq8g15H0P5SGlFKUaANoCUMIUzUryR7C9D+UhpRSlGgDaAlDCKSBksvB7Ps/lIaUUpRoA2gJQwh85ZoQ7EfkP5SGlFKUaANoCUMIfOWaEOxH5D+UhpRSlGgDaAlDCHdXHji3CRFAlIaUUpRoA2gJQwh3Vx44twkRQJSGlFKUZS4=

>  <experimental dG reference units>  (8) 
kcal/mol

>  <experimental dG reference field>  (8) 
r_exp_dg

>  <kJ/mol experimental dG>  (8) 
-32.8444

>  <kcal/mol experimental dG>  (8) 
-7.85

$$$$
23472
     RDKit          3D

 42 44  0  0  1  0  0  0  0  0999 V2000
   43.4349   13.9762   16.5152 S   0  0  0  0  0  0  0  0  0  0  0  0
   43.2388   15.3847   15.4302 C   0  0  0  0  0  0  0  0  0  0  0  0
   42.3225   15.1290   14.5121 C   0  0  0  0  0  0  0  0  0  0  0  0
   41.7595   13.7729   14.6019 C   0  0  0  0  0  0  0  0  0  0  0  0
   42.1868   13.0208   15.6281 C   0  0  0  0  0  0  0  0  0  0  0  0
   43.9400   16.6164   15.7216 C   0  0  0  0  0  0  0  0  0  0  0  0
   44.3927   16.6325   16.8863 O   0  0  0  0  0  0  0  0  0  0  0  0
   44.0706   17.5599   14.9107 O   0  0  0  0  0  0  0  0  0  0  0  0
   41.8822   11.6386   16.0501 C   0  0  0  0  0  0  0  0  0  0  0  0
   40.5678   11.0458   15.8591 C   0  0  0  0  0  0  0  0  0  0  0  0
   40.3696    9.6768   16.2269 C   0  0  0  0  0  0  0  0  0  0  0  0
   41.4677    8.9015   16.8005 C   0  0  0  0  0  0  0  0  0  0  0  0
   42.7809    9.4864   17.0095 C   0  0  0  0  0  0  0  0  0  0  0  0
   42.9621   10.8634   16.6495 C   0  0  0  0  0  0  0  0  0  0  0  0
   40.5677   13.1526   13.2617 Br  0  0  0  0  0  0  0  0  0  0  0  0
   42.0383   16.0154   13.5689 O   0  0  0  0  0  0  0  0  0  0  0  0
   40.8225   16.7172   13.7275 C   0  0  0  0  0  0  0  0  0  0  0  0
   40.5922   17.4164   12.4629 C   0  0  0  0  0  0  0  0  0  0  0  0
   39.4465   17.8760   12.3022 O   0  0  0  0  0  0  0  0  0  0  0  0
   41.5197   17.5214   11.6281 O   0  0  0  0  0  0  0  0  0  0  0  0
   39.1083    9.2240   15.9963 N   0  0  0  0  0  0  0  0  0  0  0  0
   38.8080    7.7788   15.0595 S   0  0  0  0  0  0  0  0  0  0  0  0
   39.7936   11.6508   15.4419 H   0  0  0  0  0  0  0  0  0  0  0  0
   41.3003    7.8687   17.0688 H   0  0  0  0  0  0  0  0  0  0  0  0
   43.5909    8.9080   17.4292 H   0  0  0  0  0  0  0  0  0  0  0  0
   43.9416   11.2996   16.7829 H   0  0  0  0  0  0  0  0  0  0  0  0
   40.9170   17.4458   14.5354 H   0  0  0  0  0  0  0  0  0  0  0  0
   39.9902   16.0542   13.9760 H   0  0  0  0  0  0  0  0  0  0  0  0
   38.4461    9.9275   15.6967 H   0  0  0  0  0  0  0  0  0  0  0  0
   38.5150    4.3001   18.0191 C   0  0  0  0  0  0  0  0  0  0  0  0
   37.7896    5.4665   18.2443 C   0  0  0  0  0  0  0  0  0  0  0  0
   37.8900    6.5288   17.3484 C   0  0  0  0  0  0  0  0  0  0  0  0
   38.7239    6.4196   16.2309 C   0  0  0  0  0  0  0  0  0  0  0  0
   39.4539    5.2476   16.0100 C   0  0  0  0  0  0  0  0  0  0  0  0
   39.3438    4.1860   16.9068 C   0  0  0  0  0  0  0  0  0  0  0  0
   38.4062    3.2670   18.8834 F   0  0  0  0  0  0  0  0  0  0  0  0
   37.1483    5.5396   19.1101 H   0  0  0  0  0  0  0  0  0  0  0  0
   37.3202    7.4324   17.5167 H   0  0  0  0  0  0  0  0  0  0  0  0
   40.0997    5.1587   15.1460 H   0  0  0  0  0  0  0  0  0  0  0  0
   39.9008    3.2750   16.7453 H   0  0  0  0  0  0  0  0  0  0  0  0
   39.9523    7.5749   14.1668 O   0  0  0  0  0  0  0  0  0  0  0  0
   37.4600    7.9497   14.5103 O   0  0  0  0  0  0  0  0  0  0  0  0
  1  2  1  0
  1  5  1  0
  2  3  2  0
  2  6  1  0
  3  4  1  0
  3 16  1  0
  4  5  2  0
  4 15  1  0
  5  9  1  0
  6  7  2  0
  6  8  1  0
  9 10  2  0
  9 14  1  0
 10 11  1  0
 10 23  1  0
 11 12  2  0
 11 21  1  0
 12 13  1  0
 12 24  1  0
 13 14  2  0
 13 25  1  0
 14 26  1  0
 16 17  1  0
 17 18  1  0
 17 27  1  0
 17 28  1  0
 18 19  1  0
 18 20  2  0
 21 22  1  0
 21 29  1  0
 22 33  1  0
 22 41  2  0
 22 42  2  0
 30 31  2  0
 30 35  1  0
 30 36  1  0
 31 32  1  0
 31 37  1  0
 32 33  2  0
 32 38  1  0
 33 34  1  0
 34 35  2  0
 34 39  1  0
 35 40  1  0
M  CHG  2   8  -1  19  -1
M  END
>  <r_exp_dg>  (9) 
-8.65

>  <AmberAM1BCCCache>  (9) 
gASVeQMAAAAAAABdlCiMFm51bXB5Ll9jb3JlLm11bHRpYXJyYXmUjAZzY2FsYXKUk5SMBW51bXB5lIwFZHR5cGWUk5SMAmY4lImIh5RSlChLA4wBPJROTk5K/////0r/////SwB0lGJDCJKefAsvLuI/lIaUUpRoA2gJQwioA8em1DAAwJSGlFKUaANoCUMIrfkEbJPM+j+UhpRSlGgDaAlDCLkaD54YUOG/lIaUUpRoA2gJQwgvMcI9xGoAwJSGlFKUaANoCUMIRTuo3Q8kJkCUhpRSlGgDaAlDCAC4hi5PNSPAlIaUUpRoA2gJQwgAuIYuTzUjwJSGlFKUaANoCUMIEe9kQHdO7z+UhpRSlGgDaAlDCBdXvcVOKPu/lIaUUpRoA2gJQwhXX5vFjr72P5SGlFKUaANoCUMIySSspCH0AsCUhpRSlGgDaAlDCE7NoVFPcfa/lIaUUpRoA2gJQwiiTbUW3oj7v5SGlFKUaANoCUMI0balGGFB87+UhpRSlGgDaAlDCEGPoSGd9QrAlIaUUpRoA2gJQwjbzaR2YkuwP5SGlFKUaANoCUMI1hTzybShJUCUhpRSlGgDaAlDCJxjHTWEBSTAlIaUUpRoA2gJQwicYx01hAUkwJSGlFKUaANoCUMI2/OgOz1aIsCUhpRSlGgDaAlDCEs0rDAO0zFAlIaUUpRoA2gJQwgUIxEDYzv9P5SGlFKUaANoCUMIcz8pELUZ/D+UhpRSlGgDaAlDCJPIHfqWofY/lIaUUpRoA2gJQwjnSDG/Jbn7P5SGlFKUaANoCUMI1GVM8Ypx5D+UhpRSlGgDaAlDCNRlTPGKceQ/lIaUUpRoA2gJQwhKEVCI6sUVQJSGlFKUaANoCUMIDH4sZXpvAUCUhpRSlGgDaAlDCFU1+tYmSwLAlIaUUpRoA2gJQwjjX57qoZjAP5SGlFKUaANoCUMI1a6kXomNEsCUhpRSlGgDaAlDCONfnuqhmMA/lIaUUpRoA2gJQwhVNfrWJksCwJSGlFKUaANoCUMIEN8ZM4XR+b+UhpRSlGgDaAlDCBQjEQNjO/0/lIaUUpRoA2gJQwi1Bvn1EF3+P5SGlFKUaANoCUMItQb59RBd/j+UhpRSlGgDaAlDCBQjEQNjO/0/lIaUUpRoA2gJQwjzHiIDQ3AfwJSGlFKUaANoCUMI8x4iA0NwH8CUhpRSlGUu

>  <experimental dG reference units>  (9) 
kcal/mol

>  <experimental dG reference field>  (9) 
r_exp_dg

>  <kJ/mol experimental dG>  (9) 
-36.1916

>  <kcal/mol experimental dG>  (9) 
-8.65

$$$$
23476
     RDKit          3D

 48 50  0  0  1  0  0  0  0  0999 V2000
   43.4349   13.9762   16.5152 S   0  0  0  0  0  0  0  0  0  0  0  0
   43.2388   15.3847   15.4302 C   0  0  0  0  0  0  0  0  0  0  0  0
   42.3225   15.1290   14.5121 C   0  0  0  0  0  0  0  0  0  0  0  0
   41.7595   13.7729   14.6019 C   0  0  0  0  0  0  0  0  0  0  0  0
   42.1868   13.0208   15.6281 C   0  0  0  0  0  0  0  0  0  0  0  0
   43.9400   16.6164   15.7216 C   0  0  0  0  0  0  0  0  0  0  0  0
   44.3927   16.6325   16.8863 O   0  0  0  0  0  0  0  0  0  0  0  0
   44.0706   17.5599   14.9107 O   0  0  0  0  0  0  0  0  0  0  0  0
   41.8822   11.6386   16.0501 C   0  0  0  0  0  0  0  0  0  0  0  0
   40.5678   11.0458   15.8591 C   0  0  0  0  0  0  0  0  0  0  0  0
   40.3696    9.6768   16.2269 C   0  0  0  0  0  0  0  0  0  0  0  0
   41.4677    8.9015   16.8005 C   0  0  0  0  0  0  0  0  0  0  0  0
   42.7809    9.4864   17.0095 C   0  0  0  0  0  0  0  0  0  0  0  0
   42.9621   10.8634   16.6495 C   0  0  0  0  0  0  0  0  0  0  0  0
   40.5690   13.1542   13.2597 Br  0  0  0  0  0  0  0  0  0  0  0  0
   42.0383   16.0154   13.5689 O   0  0  0  0  0  0  0  0  0  0  0  0
   40.8225   16.7172   13.7275 C   0  0  0  0  0  0  0  0  0  0  0  0
   40.5922   17.4164   12.4629 C   0  0  0  0  0  0  0  0  0  0  0  0
   39.4465   17.8760   12.3022 O   0  0  0  0  0  0  0  0  0  0  0  0
   41.5197   17.5214   11.6281 O   0  0  0  0  0  0  0  0  0  0  0  0
   39.1083    9.2240   15.9963 N   0  0  0  0  0  0  0  0  0  0  0  0
   39.7905   11.6487   15.4460 H   0  0  0  0  0  0  0  0  0  0  0  0
   41.3103    7.8687   17.0708 H   0  0  0  0  0  0  0  0  0  0  0  0
   43.5907    8.9075   17.4285 H   0  0  0  0  0  0  0  0  0  0  0  0
   43.9418   11.2995   16.7827 H   0  0  0  0  0  0  0  0  0  0  0  0
   40.9172   17.4456   14.5355 H   0  0  0  0  0  0  0  0  0  0  0  0
   39.9903   16.0541   13.9762 H   0  0  0  0  0  0  0  0  0  0  0  0
   38.5494    9.8074   15.3729 H   0  0  0  0  0  0  0  0  0  0  0  0
   39.5318    7.2169   15.7402 H   0  0  0  0  0  0  0  0  0  0  0  0
   38.7170    7.8263   16.1412 C   0  0  0  0  0  0  0  0  0  0  0  0
   38.5206    7.4400   17.6274 C   0  0  0  0  0  0  0  0  0  0  0  0
   38.8336    5.9594   17.9310 C   0  0  0  0  0  0  0  0  0  0  0  0
   37.8226    4.9320   17.3913 C   0  0  0  0  0  0  0  0  0  0  0  0
   37.5280    5.0077   15.8799 C   0  0  0  0  0  0  0  0  0  0  0  0
   36.6983    6.2404   15.4732 C   0  0  0  0  0  0  0  0  0  0  0  0
   37.4798    7.5559   15.2545 C   0  0  0  0  0  0  0  0  0  0  0  0
   37.5123    7.6934   17.9570 H   0  0  0  0  0  0  0  0  0  0  0  0
   39.1861    8.0362   18.2532 H   0  0  0  0  0  0  0  0  0  0  0  0
   39.8278    5.7203   17.5511 H   0  0  0  0  0  0  0  0  0  0  0  0
   38.9032    5.8316   19.0125 H   0  0  0  0  0  0  0  0  0  0  0  0
   36.8870    5.0221   17.9460 H   0  0  0  0  0  0  0  0  0  0  0  0
   38.1987    3.9341   17.6230 H   0  0  0  0  0  0  0  0  0  0  0  0
   38.4515    4.9540   15.3008 H   0  0  0  0  0  0  0  0  0  0  0  0
   36.9598    4.1158   15.6105 H   0  0  0  0  0  0  0  0  0  0  0  0
   36.1520    6.0178   14.5550 H   0  0  0  0  0  0  0  0  0  0  0  0
   35.9231    6.4067   16.2232 H   0  0  0  0  0  0  0  0  0  0  0  0
   36.7664    8.3773   15.3501 H   0  0  0  0  0  0  0  0  0  0  0  0
   37.8106    7.5892   14.2149 H   0  0  0  0  0  0  0  0  0  0  0  0
  1  2  1  0
  1  5  1  0
  2  3  2  0
  2  6  1  0
  3  4  1  0
  3 16  1  0
  4  5  2  0
  4 15  1  0
  5  9  1  0
  6  7  2  0
  6  8  1  0
  9 10  2  0
  9 14  1  0
 10 11  1  0
 10 22  1  0
 11 12  2  0
 11 21  1  0
 12 13  1  0
 12 23  1  0
 13 14  2  0
 13 24  1  0
 14 25  1  0
 16 17  1  0
 17 18  1  0
 17 26  1  0
 17 27  1  0
 18 19  1  0
 18 20  2  0
 21 28  1  0
 21 30  1  0
 29 30  1  0
 30 31  1  0
 30 36  1  0
 31 32  1  0
 31 37  1  0
 31 38  1  0
 32 33  1  0
 32 39  1  0
 32 40  1  0
 33 34  1  0
 33 41  1  0
 33 42  1  0
 34 35  1  0
 34 43  1  0
 34 44  1  0
 35 36  1  0
 35 45  1  0
 35 46  1  0
 36 47  1  0
 36 48  1  0
M  CHG  2   8  -1  19  -1
M  END
>  <r_exp_dg>  (10) 
-9.41

>  <AmberAM1BCCCache>  (10) 
gASV6wMAAAAAAABdlCiMFm51bXB5Ll9jb3JlLm11bHRpYXJyYXmUjAZzY2FsYXKUk5SMBW51bXB5lIwFZHR5cGWUk5SMAmY4lImIh5RSlChLA4wBPJROTk5K/////0r/////SwB0lGJDCJVLDU8Gk9k/lIaUUpRoA2gJQwg5ntysUWgAwJSGlFKUaANoCUMIs8cxmmk9+j+UhpRSlGgDaAlDCJeRxZ9NreG/lIaUUpRoA2gJQwgP9v9d6X79v5SGlFKUaANoCUMIDtP2fkgmJkCUhpRSlGgDaAlDCKid0F09TSPAlIaUUpRoA2gJQwiondBdPU0jwJSGlFKUaANoCUMIj5TGS5TP7T+UhpRSlGgDaAlDCKctmPvhXP+/lIaUUpRoA2gJQwgZZvgNCezzP5SGlFKUaANoCUMI9MshlN+qAsCUhpRSlGgDaAlDCMYTsZ5CL/a/lIaUUpRoA2gJQwhFbqSnDsn8v5SGlFKUaANoCUMIOedMzaLg87+UhpRSlGgDaAlDCJwqTTYOJQvAlIaUUpRoA2gJQwj/sfAds2exP5SGlFKUaANoCUMI0CznbuqhJUCUhpRSlGgDaAlDCCYK0PRkFCTAlIaUUpRoA2gJQwgmCtD0ZBQkwJSGlFKUaANoCUMIk/k4KR2oIMCUhpRSlGgDaAlDCJYFeqwC2/s/lIaUUpRoA2gJQwhGuRKqX7D0P5SGlFKUaANoCUMIsrfmjHfA9D+UhpRSlGgDaAlDCBQatifMCfs/lIaUUpRoA2gJQwgT57ldzWTkP5SGlFKUaANoCUMIE+e5Xc1k5D+UhpRSlGgDaAlDCOuzeRyMMxFAlIaUUpRoA2gJQwg3WUEcMw3qP5SGlFKUaANoCUMIj6gl0NiGAUCUhpRSlGgDaAlDCN3wVTNvc/G/lIaUUpRoA2gJQwhsyfAmJ6npv5SGlFKUaANoCUMIQZLsKWvc67+UhpRSlGgDaAlDCEGS7Clr3Ou/lIaUUpRoA2gJQwhsyfAmJ6npv5SGlFKUaANoCUMI3fBVM29z8b+UhpRSlGgDaAlDCDct4G+mmOE/lIaUUpRoA2gJQwg3LeBvppjhP5SGlFKUaANoCUMIClUV/nYy2T+UhpRSlGgDaAlDCApVFf52Mtk/lIaUUpRoA2gJQwijLckkzMTaP5SGlFKUaANoCUMIoy3JJMzE2j+UhpRSlGgDaAlDCKMtySTMxNo/lIaUUpRoA2gJQwijLckkzMTaP5SGlFKUaANoCUMIClUV/nYy2T+UhpRSlGgDaAlDCApVFf52Mtk/lIaUUpRoA2gJQwg3LeBvppjhP5SGlFKUaANoCUMINy3gb6aY4T+UhpRSlGUu

>  <experimental dG reference units>  (10) 
kcal/mol

>  <experimental dG reference field>  (10) 
r_exp_dg

>  <kJ/mol experimental dG>  (10) 
-39.37144

>  <kcal/mol experimental dG>  (10) 
-9.41

$$$$
23480
     RDKit          3D

 50 52  0  0  1  0  0  0  0  0999 V2000
   43.4349   13.9762   16.5152 S   0  0  0  0  0  0  0  0  0  0  0  0
   43.2388   15.3847   15.4302 C   0  0  0  0  0  0  0  0  0  0  0  0
   42.3225   15.1290   14.5121 C   0  0  0  0  0  0  0  0  0  0  0  0
   41.7595   13.7729   14.6019 C   0  0  0  0  0  0  0  0  0  0  0  0
   42.1868   13.0208   15.6281 C   0  0  0  0  0  0  0  0  0  0  0  0
   43.9400   16.6164   15.7216 C   0  0  0  0  0  0  0  0  0  0  0  0
   44.3927   16.6325   16.8863 O   0  0  0  0  0  0  0  0  0  0  0  0
   44.0706   17.5599   14.9107 O   0  0  0  0  0  0  0  0  0  0  0  0
   41.8822   11.6386   16.0501 C   0  0  0  0  0  0  0  0  0  0  0  0
   40.5678   11.0458   15.8591 C   0  0  0  0  0  0  0  0  0  0  0  0
   40.3696    9.6768   16.2269 C   0  0  0  0  0  0  0  0  0  0  0  0
   41.4677    8.9015   16.8005 C   0  0  0  0  0  0  0  0  0  0  0  0
   42.7809    9.4864   17.0095 C   0  0  0  0  0  0  0  0  0  0  0  0
   42.9621   10.8634   16.6495 C   0  0  0  0  0  0  0  0  0  0  0  0
   40.5690   13.1530   13.2601 Br  0  0  0  0  0  0  0  0  0  0  0  0
   42.0383   16.0154   13.5689 O   0  0  0  0  0  0  0  0  0  0  0  0
   40.8225   16.7172   13.7275 C   0  0  0  0  0  0  0  0  0  0  0  0
   40.5922   17.4164   12.4629 C   0  0  0  0  0  0  0  0  0  0  0  0
   39.4465   17.8760   12.3022 O   0  0  0  0  0  0  0  0  0  0  0  0
   41.5197   17.5214   11.6281 O   0  0  0  0  0  0  0  0  0  0  0  0
   39.1083    9.2240   15.9963 N   0  0  0  0  0  0  0  0  0  0  0  0
   38.8278    7.8651   15.6453 C   0  0  0  0  0  0  0  0  0  0  0  0
   37.3098    7.7080   15.5483 C   0  0  0  0  0  0  0  0  0  0  0  0
   36.8797    6.3606   15.0162 C   0  0  0  0  0  0  0  0  0  0  0  0
   37.6451    6.1119   13.7935 N   0  0  0  0  0  0  0  0  0  0  0  0
   39.1091    6.1658   13.7891 C   0  0  0  0  0  0  0  0  0  0  0  0
   39.5301    7.5042   14.3382 C   0  0  0  0  0  0  0  0  0  0  0  0
   39.7921   11.6503   15.4452 H   0  0  0  0  0  0  0  0  0  0  0  0
   41.3039    7.8696   17.0713 H   0  0  0  0  0  0  0  0  0  0  0  0
   43.5907    8.9077   17.4289 H   0  0  0  0  0  0  0  0  0  0  0  0
   43.9417   11.2996   16.7826 H   0  0  0  0  0  0  0  0  0  0  0  0
   40.9171   17.4454   14.5357 H   0  0  0  0  0  0  0  0  0  0  0  0
   39.9904   16.0540   13.9761 H   0  0  0  0  0  0  0  0  0  0  0  0
   38.5786    9.8923   15.4365 H   0  0  0  0  0  0  0  0  0  0  0  0
   39.2005    7.2103   16.4371 H   0  0  0  0  0  0  0  0  0  0  0  0
   36.8977    8.4790   14.8921 H   0  0  0  0  0  0  0  0  0  0  0  0
   36.8526    7.8713   16.5253 H   0  0  0  0  0  0  0  0  0  0  0  0
   35.7970    6.3414   14.8701 H   0  0  0  0  0  0  0  0  0  0  0  0
   37.1205    5.5771   15.7365 H   0  0  0  0  0  0  0  0  0  0  0  0
   39.5369    6.0195   12.7951 H   0  0  0  0  0  0  0  0  0  0  0  0
   39.4885    5.3629   14.4234 H   0  0  0  0  0  0  0  0  0  0  0  0
   40.6125    7.5037   14.4720 H   0  0  0  0  0  0  0  0  0  0  0  0
   39.3194    8.2673   13.5858 H   0  0  0  0  0  0  0  0  0  0  0  0
   36.9198    5.5648   12.7165 C   0  0  0  0  0  0  0  0  0  0  0  0
   35.7098    5.7212   12.5140 O   0  0  0  0  0  0  0  0  0  0  0  0
   37.6697    4.7309   11.9603 O   0  0  0  0  0  0  0  0  0  0  0  0
   37.0280    3.7695   11.1249 C   0  0  0  0  0  0  0  0  0  0  0  0
   36.5450    4.2493   10.2731 H   0  0  0  0  0  0  0  0  0  0  0  0
   37.7509    3.0475   10.7465 H   0  0  0  0  0  0  0  0  0  0  0  0
   36.2704    3.2074   11.6742 H   0  0  0  0  0  0  0  0  0  0  0  0
  1  2  1  0
  1  5  1  0
  2  3  2  0
  2  6  1  0
  3  4  1  0
  3 16  1  0
  4  5  2  0
  4 15  1  0
  5  9  1  0
  6  7  2  0
  6  8  1  0
  9 10  2  0
  9 14  1  0
 10 11  1  0
 10 28  1  0
 11 12  2  0
 11 21  1  0
 12 13  1  0
 12 29  1  0
 13 14  2  0
 13 30  1  0
 14 31  1  0
 16 17  1  0
 17 18  1  0
 17 32  1  0
 17 33  1  0
 18 19  1  0
 18 20  2  0
 21 22  1  0
 21 34  1  0
 22 23  1  0
 22 27  1  0
 22 35  1  0
 23 24  1  0
 23 36  1  0
 23 37  1  0
 24 25  1  0
 24 38  1  0
 24 39  1  0
 25 26  1  0
 25 44  1  0
 26 27  1  0
 26 40  1  0
 26 41  1  0
 27 42  1  0
 27 43  1  0
 44 45  2  0
 44 46  1  0
 46 47  1  0
 47 48  1  0
 47 49  1  0
 47 50  1  0
M  CHG  2   8  -1  19  -1
M  END
>  <r_exp_dg>  (11) 
-8.72

>  <AmberAM1BCCCache>  (11) 
gASVEQQAAAAAAABdlCiMFm51bXB5Ll9jb3JlLm11bHRpYXJyYXmUjAZzY2FsYXKUk5SMBW51bXB5lIwFZHR5cGWUk5SMAmY4lImIh5RSlChLA4wBPJROTk5K/////0r/////SwB0lGJDCNYZWIKPUdU/lIaUUpRoA2gJQwibGq6gMA4AwJSGlFKUaANoCUMIgt1lwM5c+j+UhpRSlGgDaAlDCCeBlErnWOC/lIaUUpRoA2gJQwhey0S1wDT+v5SGlFKUaANoCUMIVyY5jmwkJkCUhpRSlGgDaAlDCHOLnOIIRCPAlIaUUpRoA2gJQwhzi5ziCEQjwJSGlFKUaANoCUMISMd0G/PF7T+UhpRSlGgDaAlDCIC5v5XVWgDAlIaUUpRoA2gJQwhBysueZ7LvP5SGlFKUaANoCUMIBXhm+utpAMCUhpRSlGgDaAlDCCVXIaopnPe/lIaUUpRoA2gJQwhcoaPGWMH5v5SGlFKUaANoCUMIk2Dgv1cm87+UhpRSlGgDaAlDCC9hjD5FBgvAlIaUUpRoA2gJQwiGVxq/unmwP5SGlFKUaANoCUMI6v+DehGiJUCUhpRSlGgDaAlDCKS3I/Q0DiTAlIaUUpRoA2gJQwiktyP0NA4kwJSGlFKUaANoCUMI+/oF0fF5IMCUhpRSlGgDaAlDCKT7k3oPQwFAlIaUUpRoA2gJQwir4iBZKiH2v5SGlFKUaANoCUMI88EtHvg68D+UhpRSlGgDaAlDCFoM5HXHzhPAlIaUUpRoA2gJQwjzwS0e+DrwP5SGlFKUaANoCUMIq+IgWSoh9r+UhpRSlGgDaAlDCKYy94AHDfs/lIaUUpRoA2gJQwhfPNx14I71P5SGlFKUaANoCUMIGUFgzZhe9T+UhpRSlGgDaAlDCA6YsJSaHPw/lIaUUpRoA2gJQwg4GDwQRGvkP5SGlFKUaANoCUMIOBg8EERr5D+UhpRSlGgDaAlDCIoRFBVcixFAlIaUUpRoA2gJQwin00EbUyfnP5SGlFKUaANoCUMIm0lJYeuN5z+UhpRSlGgDaAlDCJtJSWHrjec/lIaUUpRoA2gJQwiq7Zf8yB3mP5SGlFKUaANoCUMIqu2X/Mgd5j+UhpRSlGgDaAlDCKrtl/zIHeY/lIaUUpRoA2gJQwiq7Zf8yB3mP5SGlFKUaANoCUMIm0lJYeuN5z+UhpRSlGgDaAlDCJtJSWHrjec/lIaUUpRoA2gJQwiDsHseZyQhQJSGlFKUaANoCUMI3qT73D5GHMCUhpRSlGgDaAlDCOsY1heC1hTAlIaUUpRoA2gJQwg895XCmVv6P5SGlFKUaANoCUMIcclDDT2z4T+UhpRSlGgDaAlDCHHJQw09s+E/lIaUUpRoA2gJQwhxyUMNPbPhP5SGlFKUZS4=

>  <experimental dG reference units>  (11) 
kcal/mol

>  <experimental dG reference field>  (11) 
r_exp_dg

>  <kJ/mol experimental dG>  (11) 
-36.484480000000005

>  <kcal/mol experimental dG>  (11) 
-8.72

$$$$
23470
     RDKit          3D

 42 43  0  0  1  0  0  0  0  0999 V2000
   43.4349   13.9762   16.5152 S   0  0  0  0  0  0  0  0  0  0  0  0
   43.2388   15.3847   15.4302 C   0  0  0  0  0  0  0  0  0  0  0  0
   42.3225   15.1290   14.5121 C   0  0  0  0  0  0  0  0  0  0  0  0
   41.7595   13.7729   14.6019 C   0  0  0  0  0  0  0  0  0  0  0  0
   42.1868   13.0208   15.6281 C   0  0  0  0  0  0  0  0  0  0  0  0
   43.9400   16.6164   15.7216 C   0  0  0  0  0  0  0  0  0  0  0  0
   44.3927   16.6325   16.8863 O   0  0  0  0  0  0  0  0  0  0  0  0
   44.0706   17.5599   14.9107 O   0  0  0  0  0  0  0  0  0  0  0  0
   41.8822   11.6386   16.0501 C   0  0  0  0  0  0  0  0  0  0  0  0
   40.5678   11.0458   15.8591 C   0  0  0  0  0  0  0  0  0  0  0  0
   40.3696    9.6768   16.2269 C   0  0  0  0  0  0  0  0  0  0  0  0
   41.4677    8.9015   16.8005 C   0  0  0  0  0  0  0  0  0  0  0  0
   42.7809    9.4864   17.0095 C   0  0  0  0  0  0  0  0  0  0  0  0
   42.9621   10.8634   16.6495 C   0  0  0  0  0  0  0  0  0  0  0  0
   40.5668   13.1521   13.2625 Br  0  0  0  0  0  0  0  0  0  0  0  0
   42.0383   16.0154   13.5689 O   0  0  0  0  0  0  0  0  0  0  0  0
   40.8225   16.7172   13.7275 C   0  0  0  0  0  0  0  0  0  0  0  0
   40.5922   17.4164   12.4629 C   0  0  0  0  0  0  0  0  0  0  0  0
   39.4465   17.8760   12.3022 O   0  0  0  0  0  0  0  0  0  0  0  0
   41.5197   17.5214   11.6281 O   0  0  0  0  0  0  0  0  0  0  0  0
   39.1083    9.2240   15.9963 N   0  0  0  0  0  0  0  0  0  0  0  0
   39.7938   11.6531   15.4426 H   0  0  0  0  0  0  0  0  0  0  0  0
   41.3244    7.8680   17.0768 H   0  0  0  0  0  0  0  0  0  0  0  0
   43.5910    8.9079   17.4291 H   0  0  0  0  0  0  0  0  0  0  0  0
   43.9419   11.2992   16.7830 H   0  0  0  0  0  0  0  0  0  0  0  0
   40.9171   17.4455   14.5356 H   0  0  0  0  0  0  0  0  0  0  0  0
   39.9903   16.0540   13.9761 H   0  0  0  0  0  0  0  0  0  0  0  0
   38.5333    9.8951   15.5042 H   0  0  0  0  0  0  0  0  0  0  0  0
   38.6697    7.9571   15.9554 C   0  0  0  0  0  0  0  0  0  0  0  0
   39.0816    7.0285   16.6520 O   0  0  0  0  0  0  0  0  0  0  0  0
   37.7605    7.8086   14.9838 N   0  0  0  0  0  0  0  0  0  0  0  0
   37.4572    8.6387   14.4970 H   0  0  0  0  0  0  0  0  0  0  0  0
   37.2585    6.5395   14.4572 C   0  0  0  0  0  0  0  0  0  0  0  0
   37.0817    5.8562   15.2942 H   0  0  0  0  0  0  0  0  0  0  0  0
   35.9139    6.7642   13.7544 C   0  0  0  0  0  0  0  0  0  0  0  0
   35.5032    5.8293   13.3718 H   0  0  0  0  0  0  0  0  0  0  0  0
   35.1816    7.1792   14.4451 H   0  0  0  0  0  0  0  0  0  0  0  0
   36.0052    7.4547   12.9147 H   0  0  0  0  0  0  0  0  0  0  0  0
   38.2740    5.8840   13.5040 C   0  0  0  0  0  0  0  0  0  0  0  0
   38.5003    6.5268   12.6530 H   0  0  0  0  0  0  0  0  0  0  0  0
   39.2164    5.6716   14.0114 H   0  0  0  0  0  0  0  0  0  0  0  0
   37.8985    4.9379   13.1129 H   0  0  0  0  0  0  0  0  0  0  0  0
  1  2  1  0
  1  5  1  0
  2  3  2  0
  2  6  1  0
  3  4  1  0
  3 16  1  0
  4  5  2  0
  4 15  1  0
  5  9  1  0
  6  7  2  0
  6  8  1  0
  9 10  2  0
  9 14  1  0
 10 11  1  0
 10 22  1  0
 11 12  2  0
 11 21  1  0
 12 13  1  0
 12 23  1  0
 13 14  2  0
 13 24  1  0
 14 25  1  0
 16 17  1  0
 17 18  1  0
 17 26  1  0
 17 27  1  0
 18 19  1  0
 18 20  2  0
 21 28  1  0
 21 29  1  0
 29 30  2  0
 29 31  1  0
 31 32  1  0
 31 33  1  0
 33 34  1  0
 33 35  1  0
 33 39  1  0
 35 36  1  0
 35 37  1  0
 35 38  1  0
 39 40  1  0
 39 41  1  0
 39 42  1  0
M  CHG  2   8  -1  19  -1
M  END
>  <r_exp_dg>  (12) 
-7.72

>  <AmberAM1BCCCache>  (12) 
gASVeQMAAAAAAABdlCiMFm51bXB5Ll9jb3JlLm11bHRpYXJyYXmUjAZzY2FsYXKUk5SMBW51bXB5lIwFZHR5cGWUk5SMAmY4lImIh5RSlChLA4wBPJROTk5K/////0r/////SwB0lGJDCFbKSs7ahNQ/lIaUUpRoA2gJQwioA8em1DAAwJSGlFKUaANoCUMIIgMNGwRs+j+UhpRSlGgDaAlDCKMtH/z5juC/lIaUUpRoA2gJQwgErsTzDdH9v5SGlFKUaANoCUMIRTuo3Q8kJkCUhpRSlGgDaAlDCO71PIhuSiPAlIaUUpRoA2gJQwju9TyIbkojwJSGlFKUaANoCUMIQzGdCYyq7D+UhpRSlGgDaAlDCClbGpPpyADAlIaUUpRoA2gJQwjM/fNrs5fYP5SGlFKUaANoCUMIKhABpYH8/b+UhpRSlGgDaAlDCDWsBe1Ew/e/lIaUUpRoA2gJQwgFnnnmG1T4v5SGlFKUaANoCUMIRsCtx9Hg8r+UhpRSlGgDaAlDCOSM3/XADQvAlIaUUpRoA2gJQwgzgmT+3E+zP5SGlFKUaANoCUMI1hTzybShJUCUhpRSlGgDaAlDCGxiPB+WESTAlIaUUpRoA2gJQwhsYjwflhEkwJSGlFKUaANoCUMI9tw0TRHMFMCUhpRSlGgDaAlDCEZlScx3l/o/lIaUUpRoA2gJQwhzPykQtRn8P5SGlFKUaANoCUMIw9apAMAQ9j+UhpRSlGgDaAlDCLg6pbj8Sfw/lIaUUpRoA2gJQwiOatBIQ0HkP5SGlFKUaANoCUMIjmrQSENB5D+UhpRSlGgDaAlDCM80QEtWhgxAlIaUUpRoA2gJQwjMugGpq5AhQJSGlFKUaANoCUMIofexuKTxHcCUhpRSlGgDaAlDCHWVLG7usBnAlIaUUpRoA2gJQwh1ZiriZYsKQJSGlFKUaANoCUMI953ns5Yp8D+UhpRSlGgDaAlDCA2L11W16vA/lIaUUpRoA2gJQwigjsMwwtv0v5SGlFKUaANoCUMIvAOicpxw3D+UhpRSlGgDaAlDCLwDonKccNw/lIaUUpRoA2gJQwi8A6JynHDcP5SGlFKUaANoCUMIoI7DMMLb9L+UhpRSlGgDaAlDCLwDonKccNw/lIaUUpRoA2gJQwi8A6JynHDcP5SGlFKUaANoCUMIvAOicpxw3D+UhpRSlGUu

>  <experimental dG reference units>  (12) 
kcal/mol

>  <experimental dG reference field>  (12) 
r_exp_dg

>  <kJ/mol experimental dG>  (12) 
-32.30048

>  <kcal/mol experimental dG>  (12) 
-7.72

$$$$
23468
     RDKit          3D

 37 38  0  0  1  0  0  0  0  0999 V2000
   43.4349   13.9762   16.5152 S   0  0  0  0  0  0  0  0  0  0  0  0
   43.2388   15.3847   15.4302 C   0  0  0  0  0  0  0  0  0  0  0  0
   42.3225   15.1290   14.5121 C   0  0  0  0  0  0  0  0  0  0  0  0
   41.7595   13.7729   14.6019 C   0  0  0  0  0  0  0  0  0  0  0  0
   42.1868   13.0208   15.6281 C   0  0  0  0  0  0  0  0  0  0  0  0
   43.9400   16.6164   15.7216 C   0  0  0  0  0  0  0  0  0  0  0  0
   44.3927   16.6325   16.8863 O   0  0  0  0  0  0  0  0  0  0  0  0
   44.0706   17.5599   14.9107 O   0  0  0  0  0  0  0  0  0  0  0  0
   41.8822   11.6386   16.0501 C   0  0  0  0  0  0  0  0  0  0  0  0
   40.5678   11.0458   15.8591 C   0  0  0  0  0  0  0  0  0  0  0  0
   40.3696    9.6768   16.2269 C   0  0  0  0  0  0  0  0  0  0  0  0
   41.4677    8.9015   16.8005 C   0  0  0  0  0  0  0  0  0  0  0  0
   42.7809    9.4864   17.0095 C   0  0  0  0  0  0  0  0  0  0  0  0
   42.9621   10.8634   16.6495 C   0  0  0  0  0  0  0  0  0  0  0  0
   40.5671   13.1521   13.2622 Br  0  0  0  0  0  0  0  0  0  0  0  0
   42.0383   16.0154   13.5689 O   0  0  0  0  0  0  0  0  0  0  0  0
   40.8225   16.7172   13.7275 C   0  0  0  0  0  0  0  0  0  0  0  0
   40.5922   17.4164   12.4629 C   0  0  0  0  0  0  0  0  0  0  0  0
   39.4465   17.8760   12.3022 O   0  0  0  0  0  0  0  0  0  0  0  0
   41.5197   17.5214   11.6281 O   0  0  0  0  0  0  0  0  0  0  0  0
   39.1083    9.2240   15.9963 N   0  0  0  0  0  0  0  0  0  0  0  0
   39.7942   11.6540   15.4434 H   0  0  0  0  0  0  0  0  0  0  0  0
   41.3282    7.8653   17.0678 H   0  0  0  0  0  0  0  0  0  0  0  0
   43.5916    8.9072   17.4269 H   0  0  0  0  0  0  0  0  0  0  0  0
   43.9419   11.2991   16.7823 H   0  0  0  0  0  0  0  0  0  0  0  0
   40.9171   17.4456   14.5355 H   0  0  0  0  0  0  0  0  0  0  0  0
   39.9903   16.0541   13.9760 H   0  0  0  0  0  0  0  0  0  0  0  0
   38.5420    9.8538   15.4394 H   0  0  0  0  0  0  0  0  0  0  0  0
   38.5034    8.0808   16.3651 C   0  0  0  0  0  0  0  0  0  0  0  0
   39.0017    7.2078   17.0778 O   0  0  0  0  0  0  0  0  0  0  0  0
   37.0605    7.9117   15.8745 C   0  0  0  0  0  0  0  0  0  0  0  0
   36.4220    7.8461   16.7551 H   0  0  0  0  0  0  0  0  0  0  0  0
   36.7345    8.8007   15.3320 H   0  0  0  0  0  0  0  0  0  0  0  0
   36.8460    6.6696   14.9858 C   0  0  0  0  0  0  0  0  0  0  0  0
   35.8036    6.5940   14.6738 H   0  0  0  0  0  0  0  0  0  0  0  0
   37.4555    6.7145   14.0818 H   0  0  0  0  0  0  0  0  0  0  0  0
   37.0970    5.7479   15.5131 H   0  0  0  0  0  0  0  0  0  0  0  0
  1  2  1  0
  1  5  1  0
  2  3  2  0
  2  6  1  0
  3  4  1  0
  3 16  1  0
  4  5  2  0
  4 15  1  0
  5  9  1  0
  6  7  2  0
  6  8  1  0
  9 10  2  0
  9 14  1  0
 10 11  1  0
 10 22  1  0
 11 12  2  0
 11 21  1  0
 12 13  1  0
 12 23  1  0
 13 14  2  0
 13 24  1  0
 14 25  1  0
 16 17  1  0
 17 18  1  0
 17 26  1  0
 17 27  1  0
 18 19  1  0
 18 20  2  0
 21 28  1  0
 21 29  1  0
 29 30  2  0
 29 31  1  0
 31 32  1  0
 31 33  1  0
 31 34  1  0
 34 35  1  0
 34 36  1  0
 34 37  1  0
M  CHG  2   8  -1  19  -1
M  END
>  <r_exp_dg>  (13) 
-7.75

>  <AmberAM1BCCCache>  (13) 
gASVGgMAAAAAAABdlCiMFm51bXB5Ll9jb3JlLm11bHRpYXJyYXmUjAZzY2FsYXKUk5SMBW51bXB5lIwFZHR5cGWUk5SMAmY4lImIh5RSlChLA4wBPJROTk5K/////0r/////SwB0lGJDCPL7PmLUB9M/lIaUUpRoA2gJQwgvgszLLTAAwJSGlFKUaANoCUMIFAYC0VFt+j+UhpRSlGgDaAlDCL8nNZBejOC/lIaUUpRoA2gJQwjNr1OVeJ/9v5SGlFKUaANoCUMIpNtmlDkkJkCUhpRSlGgDaAlDCEQVBkxJTSPAlIaUUpRoA2gJQwhEFQZMSU0jwJSGlFKUaANoCUMIUxFnuWQv7j+UhpRSlGgDaAlDCN7NVd31QAHAlIaUUpRoA2gJQwjaiXs+vDXhP5SGlFKUaANoCUMIa96jD/uXAMCUhpRSlGgDaAlDCC28IJXYAPe/lIaUUpRoA2gJQwhvg/B6NET5v5SGlFKUaANoCUMID8I8aTyv8r+UhpRSlGgDaAlDCGsL5RoaDQvAlIaUUpRoA2gJQwhUsbRduGSzP5SGlFKUaANoCUMINLWxgN6hJUCUhpRSlGgDaAlDCA7CfWhsESTAlIaUUpRoA2gJQwgOwn1obBEkwJSGlFKUaANoCUMIlYQjKiS9FcCUhpRSlGgDaAlDCPRswtl9aPo/lIaUUpRoA2gJQwg1NJK/2av8P5SGlFKUaANoCUMIcN4iDsbh9T+UhpRSlGgDaAlDCKo9mm5KS/w/lIaUUpRoA2gJQwi4azZdJnTkP5SGlFKUaANoCUMIuGs2XSZ05D+UhpRSlGgDaAlDCEac5ESHkA1AlIaUUpRoA2gJQwj+GxcZphMfQJSGlFKUaANoCUMIt8+pFtnzHMCUhpRSlGgDaAlDCHZ2jiM83v2/lIaUUpRoA2gJQwgqQZJJqybmP5SGlFKUaANoCUMIKkGSSasm5j+UhpRSlGgDaAlDCOQkAnL09O6/lIaUUpRoA2gJQwhwWMl9wbfdP5SGlFKUaANoCUMIcFjJfcG33T+UhpRSlGgDaAlDCHBYyX3Bt90/lIaUUpRlLg==

>  <experimental dG reference units>  (13) 
kcal/mol

>  <experimental dG reference field>  (13) 
r_exp_dg

>  <kJ/mol experimental dG>  (13) 
-32.426

>  <kcal/mol experimental dG>  (13) 
-7.75

$$$$
23482
     RDKit          3D

 50 52  0  0  1  0  0  0  0  0999 V2000
   43.4349   13.9762   16.5152 S   0  0  0  0  0  0  0  0  0  0  0  0
   43.2388   15.3847   15.4302 C   0  0  0  0  0  0  0  0  0  0  0  0
   42.3225   15.1290   14.5121 C   0  0  0  0  0  0  0  0  0  0  0  0
   41.7595   13.7729   14.6019 C   0  0  0  0  0  0  0  0  0  0  0  0
   42.1868   13.0208   15.6281 C   0  0  0  0  0  0  0  0  0  0  0  0
   43.9400   16.6164   15.7216 C   0  0  0  0  0  0  0  0  0  0  0  0
   44.3927   16.6325   16.8863 O   0  0  0  0  0  0  0  0  0  0  0  0
   44.0706   17.5599   14.9107 O   0  0  0  0  0  0  0  0  0  0  0  0
   41.8822   11.6386   16.0501 C   0  0  0  0  0  0  0  0  0  0  0  0
   40.5678   11.0458   15.8591 C   0  0  0  0  0  0  0  0  0  0  0  0
   40.3696    9.6768   16.2269 C   0  0  0  0  0  0  0  0  0  0  0  0
   41.4677    8.9015   16.8005 C   0  0  0  0  0  0  0  0  0  0  0  0
   42.7809    9.4864   17.0095 C   0  0  0  0  0  0  0  0  0  0  0  0
   42.9621   10.8634   16.6495 C   0  0  0  0  0  0  0  0  0  0  0  0
   40.5688   13.1529   13.2604 Br  0  0  0  0  0  0  0  0  0  0  0  0
   42.0383   16.0154   13.5689 O   0  0  0  0  0  0  0  0  0  0  0  0
   40.8225   16.7172   13.7275 C   0  0  0  0  0  0  0  0  0  0  0  0
   40.5922   17.4164   12.4629 C   0  0  0  0  0  0  0  0  0  0  0  0
   39.4465   17.8760   12.3022 O   0  0  0  0  0  0  0  0  0  0  0  0
   41.5197   17.5214   11.6281 O   0  0  0  0  0  0  0  0  0  0  0  0
   39.1083    9.2240   15.9963 N   0  0  0  0  0  0  0  0  0  0  0  0
   38.8278    7.8651   15.6453 C   0  0  0  0  0  0  0  0  0  0  0  0
   37.3098    7.7080   15.5483 C   0  0  0  0  0  0  0  0  0  0  0  0
   36.8797    6.3606   15.0162 C   0  0  0  0  0  0  0  0  0  0  0  0
   37.6451    6.1119   13.7935 N   0  0  0  0  0  0  0  0  0  0  0  0
   39.1091    6.1658   13.7891 C   0  0  0  0  0  0  0  0  0  0  0  0
   39.5301    7.5042   14.3382 C   0  0  0  0  0  0  0  0  0  0  0  0
   36.8923    4.9380   12.6856 S   0  0  0  0  0  0  0  0  0  0  0  0
   37.6043    4.9657   11.4074 O   0  0  0  0  0  0  0  0  0  0  0  0
   35.4378    5.1317   12.7005 O   0  0  0  0  0  0  0  0  0  0  0  0
   37.2474    3.2950   13.4809 C   0  0  0  0  0  0  0  0  0  0  0  0
   39.7923   11.6505   15.4451 H   0  0  0  0  0  0  0  0  0  0  0  0
   41.3040    7.8696   17.0716 H   0  0  0  0  0  0  0  0  0  0  0  0
   43.5907    8.9077   17.4289 H   0  0  0  0  0  0  0  0  0  0  0  0
   43.9418   11.2995   16.7826 H   0  0  0  0  0  0  0  0  0  0  0  0
   40.9171   17.4454   14.5357 H   0  0  0  0  0  0  0  0  0  0  0  0
   39.9903   16.0540   13.9761 H   0  0  0  0  0  0  0  0  0  0  0  0
   38.5791    9.8944   15.4383 H   0  0  0  0  0  0  0  0  0  0  0  0
   39.2004    7.2102   16.4370 H   0  0  0  0  0  0  0  0  0  0  0  0
   36.9011    8.4796   14.8907 H   0  0  0  0  0  0  0  0  0  0  0  0
   36.8512    7.8745   16.5241 H   0  0  0  0  0  0  0  0  0  0  0  0
   35.8102    6.3527   14.8007 H   0  0  0  0  0  0  0  0  0  0  0  0
   37.0820    5.5517   15.7202 H   0  0  0  0  0  0  0  0  0  0  0  0
   39.4799    6.0230   12.7724 H   0  0  0  0  0  0  0  0  0  0  0  0
   39.4869    5.3383   14.3921 H   0  0  0  0  0  0  0  0  0  0  0  0
   40.6128    7.5066   14.4697 H   0  0  0  0  0  0  0  0  0  0  0  0
   39.3165    8.2677   13.5871 H   0  0  0  0  0  0  0  0  0  0  0  0
   36.7970    3.2893   14.4694 H   0  0  0  0  0  0  0  0  0  0  0  0
   38.3255    3.1744   13.5433 H   0  0  0  0  0  0  0  0  0  0  0  0
   36.8115    2.5212   12.8554 H   0  0  0  0  0  0  0  0  0  0  0  0
  1  2  1  0
  1  5  1  0
  2  3  2  0
  2  6  1  0
  3  4  1  0
  3 16  1  0
  4  5  2  0
  4 15  1  0
  5  9  1  0
  6  7  2  0
  6  8  1  0
  9 10  2  0
  9 14  1  0
 10 11  1  0
 10 32  1  0
 11 12  2  0
 11 21  1  0
 12 13  1  0
 12 33  1  0
 13 14  2  0
 13 34  1  0
 14 35  1  0
 16 17  1  0
 17 18  1  0
 17 36  1  0
 17 37  1  0
 18 19  1  0
 18 20  2  0
 21 22  1  0
 21 38  1  0
 22 23  1  0
 22 27  1  0
 22 39  1  0
 23 24  1  0
 23 40  1  0
 23 41  1  0
 24 25  1  0
 24 42  1  0
 24 43  1  0
 25 26  1  0
 25 28  1  0
 26 27  1  0
 26 44  1  0
 26 45  1  0
 27 46  1  0
 27 47  1  0
 28 29  2  0
 28 30  2  0
 28 31  1  0
 31 48  1  0
 31 49  1  0
 31 50  1  0
M  CHG  2   8  -1  19  -1
M  END
>  <r_exp_dg>  (14) 
-10.01

>  <AmberAM1BCCCache>  (14) 
gASVEQQAAAAAAABdlCiMFm51bXB5Ll9jb3JlLm11bHRpYXJyYXmUjAZzY2FsYXKUk5SMBW51bXB5lIwFZHR5cGWUk5SMAmY4lImIh5RSlChLA4wBPJROTk5K/////0r/////SwB0lGJDCLfYbYCm1Nc/lIaUUpRoA2gJQwgmZvuSwh0AwJSGlFKUaANoCUMIAtxnkbRm+j+UhpRSlGgDaAlDCOCybFX5cuC/lIaUUpRoA2gJQwj/WNfqc7T+v5SGlFKUaANoCUMIhIlbawAkJkCUhpRSlGgDaAlDCABvfksjQSPAlIaUUpRoA2gJQwgAb35LI0EjwJSGlFKUaANoCUMIKPQ1gIr77T+UhpRSlGgDaAlDCHjJGFokPQDAlIaUUpRoA2gJQwiF3KHK8OzuP5SGlFKUaANoCUMIHMdWLkhVAMCUhpRSlGgDaAlDCJI8Laucq/e/lIaUUpRoA2gJQwguPcICNbD5v5SGlFKUaANoCUMIEneKmYRL87+UhpRSlGgDaAlDCMa60scqCQvAlIaUUpRoA2gJQwj0ozisZyuxP5SGlFKUaANoCUMIyiIu0qmkJUCUhpRSlGgDaAlDCMWUeZycCyTAlIaUUpRoA2gJQwjFlHmcnAskwJSGlFKUaANoCUMI4Xptkbl7IMCUhpRSlGgDaAlDCFZ7cv4jxgFAlIaUUpRoA2gJQwjCtWi6EeH0v5SGlFKUaANoCUMIelipxdU0BUCUhpRSlGgDaAlDCFhZGN4uWiPAlIaUUpRoA2gJQwh6WKnF1TQFQJSGlFKUaANoCUMIwrVouhHh9L+UhpRSlGgDaAlDCKt+h+AsLzFAlIaUUpRoA2gJQwj7YrnnxSkfwJSGlFKUaANoCUMI+2K558UpH8CUhpRSlGgDaAlDCALrzfgJDxHAlIaUUpRoA2gJQwiVZFlWgxT7P5SGlFKUaANoCUMIllQOSZGX9T+UhpRSlGgDaAlDCHHy0ZcdbPU/lIaUUpRoA2gJQwhyscN9ORn8P5SGlFKUaANoCUMIkxcC3utm5D+UhpRSlGgDaAlDCJMXAt7rZuQ/lIaUUpRoA2gJQwhPsRBMU4wRQJSGlFKUaANoCUMI9ZFnnJGl5T+UhpRSlGgDaAlDCDWd5biIPec/lIaUUpRoA2gJQwg1neW4iD3nP5SGlFKUaANoCUMIKtSfZaYB4z+UhpRSlGgDaAlDCCrUn2WmAeM/lIaUUpRoA2gJQwgq1J9lpgHjP5SGlFKUaANoCUMIKtSfZaYB4z+UhpRSlGgDaAlDCDWd5biIPec/lIaUUpRoA2gJQwg1neW4iD3nP5SGlFKUaANoCUMI3+b364ED9T+UhpRSlGgDaAlDCN/m9+uBA/U/lIaUUpRoA2gJQwjf5vfrgQP1P5SGlFKUZS4=

>  <experimental dG reference units>  (14) 
kcal/mol

>  <experimental dG reference field>  (14) 
r_exp_dg

>  <kJ/mol experimental dG>  (14) 
-41.881840000000004

>  <kcal/mol experimental dG>  (14) 
-10.01

$$$$
23484
     RDKit          3D

 60 63  0  0  1  0  0  0  0  0999 V2000
   43.4349   13.9762   16.5152 S   0  0  0  0  0  0  0  0  0  0  0  0
   43.2388   15.3847   15.4302 C   0  0  0  0  0  0  0  0  0  0  0  0
   42.3225   15.1290   14.5121 C   0  0  0  0  0  0  0  0  0  0  0  0
   41.7595   13.7729   14.6019 C   0  0  0  0  0  0  0  0  0  0  0  0
   42.1868   13.0208   15.6281 C   0  0  0  0  0  0  0  0  0  0  0  0
   43.9400   16.6164   15.7216 C   0  0  0  0  0  0  0  0  0  0  0  0
   44.3927   16.6325   16.8863 O   0  0  0  0  0  0  0  0  0  0  0  0
   44.0706   17.5599   14.9107 O   0  0  0  0  0  0  0  0  0  0  0  0
   41.8822   11.6386   16.0501 C   0  0  0  0  0  0  0  0  0  0  0  0
   40.5678   11.0458   15.8591 C   0  0  0  0  0  0  0  0  0  0  0  0
   40.3696    9.6768   16.2269 C   0  0  0  0  0  0  0  0  0  0  0  0
   41.4677    8.9015   16.8005 C   0  0  0  0  0  0  0  0  0  0  0  0
   42.7809    9.4864   17.0095 C   0  0  0  0  0  0  0  0  0  0  0  0
   42.9621   10.8634   16.6495 C   0  0  0  0  0  0  0  0  0  0  0  0
   42.0383   16.0154   13.5689 O   0  0  0  0  0  0  0  0  0  0  0  0
   40.8225   16.7172   13.7275 C   0  0  0  0  0  0  0  0  0  0  0  0
   40.5922   17.4164   12.4629 C   0  0  0  0  0  0  0  0  0  0  0  0
   39.4465   17.8760   12.3022 O   0  0  0  0  0  0  0  0  0  0  0  0
   41.5197   17.5214   11.6281 O   0  0  0  0  0  0  0  0  0  0  0  0
   39.1083    9.2240   15.9963 N   0  0  0  0  0  0  0  0  0  0  0  0
   38.8278    7.8651   15.6453 C   0  0  0  0  0  0  0  0  0  0  0  0
   37.3098    7.7080   15.5483 C   0  0  0  0  0  0  0  0  0  0  0  0
   36.8797    6.3606   15.0162 C   0  0  0  0  0  0  0  0  0  0  0  0
   37.6451    6.1119   13.7935 N   0  0  0  0  0  0  0  0  0  0  0  0
   39.1091    6.1658   13.7891 C   0  0  0  0  0  0  0  0  0  0  0  0
   39.5301    7.5042   14.3382 C   0  0  0  0  0  0  0  0  0  0  0  0
   36.8271    5.0850   12.5942 S   0  0  0  0  0  0  0  0  0  0  0  0
   37.6608    5.0112   11.3942 O   0  0  0  0  0  0  0  0  0  0  0  0
   35.4374    5.5435   12.4708 O   0  0  0  0  0  0  0  0  0  0  0  0
   36.8129    3.3913   13.4008 C   0  0  0  0  0  0  0  0  0  0  0  0
   36.1892    2.3341   12.5054 C   0  0  0  0  0  0  0  0  0  0  0  0
   36.9940    1.6134   11.6207 C   0  0  0  0  0  0  0  0  0  0  0  0
   36.4211    0.6593   10.7847 C   0  0  0  0  0  0  0  0  0  0  0  0
   35.0484    0.4272   10.8390 C   0  0  0  0  0  0  0  0  0  0  0  0
   34.2435    1.1375   11.7264 C   0  0  0  0  0  0  0  0  0  0  0  0
   34.8141    2.0942   12.5620 C   0  0  0  0  0  0  0  0  0  0  0  0
   39.7924   11.6509   15.4452 H   0  0  0  0  0  0  0  0  0  0  0  0
   41.3036    7.8697   17.0715 H   0  0  0  0  0  0  0  0  0  0  0  0
   43.5907    8.9077   17.4289 H   0  0  0  0  0  0  0  0  0  0  0  0
   43.9418   11.2995   16.7826 H   0  0  0  0  0  0  0  0  0  0  0  0
   40.9172   17.4454   14.5358 H   0  0  0  0  0  0  0  0  0  0  0  0
   39.9904   16.0539   13.9762 H   0  0  0  0  0  0  0  0  0  0  0  0
   38.5796    9.8940   15.4374 H   0  0  0  0  0  0  0  0  0  0  0  0
   39.2004    7.2119   16.4377 H   0  0  0  0  0  0  0  0  0  0  0  0
   36.9011    8.4789   14.8900 H   0  0  0  0  0  0  0  0  0  0  0  0
   36.8511    7.8747   16.5239 H   0  0  0  0  0  0  0  0  0  0  0  0
   35.8098    6.3485   14.8015 H   0  0  0  0  0  0  0  0  0  0  0  0
   37.0818    5.5514   15.7200 H   0  0  0  0  0  0  0  0  0  0  0  0
   39.4818    6.0238   12.7732 H   0  0  0  0  0  0  0  0  0  0  0  0
   39.4868    5.3356   14.3884 H   0  0  0  0  0  0  0  0  0  0  0  0
   40.6127    7.5066   14.4696 H   0  0  0  0  0  0  0  0  0  0  0  0
   39.3160    8.2672   13.5868 H   0  0  0  0  0  0  0  0  0  0  0  0
   36.2709    3.4979   14.3368 H   0  0  0  0  0  0  0  0  0  0  0  0
   37.8484    3.1587   13.6377 H   0  0  0  0  0  0  0  0  0  0  0  0
   38.0586    1.7971   11.5663 H   0  0  0  0  0  0  0  0  0  0  0  0
   37.0396    0.1073   10.0898 H   0  0  0  0  0  0  0  0  0  0  0  0
   34.6014   -0.3027   10.1781 H   0  0  0  0  0  0  0  0  0  0  0  0
   33.1775    0.9575   11.7549 H   0  0  0  0  0  0  0  0  0  0  0  0
   34.1817    2.6553   13.2365 H   0  0  0  0  0  0  0  0  0  0  0  0
   41.0449   13.4351   13.8660 H   0  0  0  0  0  0  0  0  0  0  0  0
  1  2  1  0
  1  5  1  0
  2  3  2  0
  2  6  1  0
  3  4  1  0
  3 15  1  0
  4  5  2  0
  4 60  1  0
  5  9  1  0
  6  7  2  0
  6  8  1  0
  9 10  2  0
  9 14  1  0
 10 11  1  0
 10 37  1  0
 11 12  2  0
 11 20  1  0
 12 13  1  0
 12 38  1  0
 13 14  2  0
 13 39  1  0
 14 40  1  0
 15 16  1  0
 16 17  1  0
 16 41  1  0
 16 42  1  0
 17 18  1  0
 17 19  2  0
 20 21  1  0
 20 43  1  0
 21 22  1  0
 21 26  1  0
 21 44  1  0
 22 23  1  0
 22 45  1  0
 22 46  1  0
 23 24  1  0
 23 47  1  0
 23 48  1  0
 24 25  1  0
 24 27  1  0
 25 26  1  0
 25 49  1  0
 25 50  1  0
 26 51  1  0
 26 52  1  0
 27 28  2  0
 27 29  2  0
 27 30  1  0
 30 31  1  0
 30 53  1  0
 30 54  1  0
 31 32  2  0
 31 36  1  0
 32 33  1  0
 32 55  1  0
 33 34  2  0
 33 56  1  0
 34 35  1  0
 34 57  1  0
 35 36  2  0
 35 58  1  0
 36 59  1  0
M  CHG  2   8  -1  18  -1
M  END
>  <r_exp_dg>  (15) 
-7.75

>  <AmberAM1BCCCache>  (15) 
gASVzwQAAAAAAABdlCiMFm51bXB5Ll9jb3JlLm11bHRpYXJyYXmUjAZzY2FsYXKUk5SMBW51bXB5lIwFZHR5cGWUk5SMAmY4lImIh5RSlChLA4wBPJROTk5K/////0r/////SwB0lGJDCNtEF5S3iNS/lIaUUpRoA2gJQwhTLEujZVDvv5SGlFKUaANoCUMIbwAW2YI07j+UhpRSlGgDaAlDCHi+qx7cYv6/lIaUUpRoA2gJQwjzvNiUdY8AwJSGlFKUaANoCUMI5dPWtSZIJkCUhpRSlGgDaAlDCFsHML1nQiPAlIaUUpRoA2gJQwhbBzC9Z0IjwJSGlFKUaANoCUMIp1DhbgQQ9D+UhpRSlGgDaAlDCKlzWkjMewPAlIaUUpRoA2gJQwhJuc5LdO7xP5SGlFKUaANoCUMI2Y6RPzBmAsCUhpRSlGgDaAlDCCum8N4kJfW/lIaUUpRoA2gJQwiSju5bEEH+v5SGlFKUaANoCUMIOWqbMp7xB8CUhpRSlGgDaAlDCKj5QEh8LKA/lIaUUpRoA2gJQwhEUpgEF9YlQJSGlFKUaANoCUMInCwEu9TQI8CUhpRSlGgDaAlDCJwsBLvU0CPAlIaUUpRoA2gJQwhgBgeCmH0gwJSGlFKUaANoCUMIR+VqHY7PAUCUhpRSlGgDaAlDCKN49Uc16/S/lIaUUpRoA2gJQwi1k8U3YhAFQJSGlFKUaANoCUMISnK6WmpVI8CUhpRSlGgDaAlDCLWTxTdiEAVAlIaUUpRoA2gJQwijePVHNev0v5SGlFKUaANoCUMIG3ibjzX1MECUhpRSlGgDaAlDCD8Tvy8trh7AlIaUUpRoA2gJQwg/E78vLa4ewJSGlFKUaANoCUMICKC9YhDXB8CUhpRSlGgDaAlDCLD0INPnR+W/lIaUUpRoA2gJQwjfxyGbx9f1v5SGlFKUaANoCUMIXOvIxPCC+L+UhpRSlGgDaAlDCDGz5Giitfi/lIaUUpRoA2gJQwhc68jE8IL4v5SGlFKUaANoCUMI38chm8fX9b+UhpRSlGgDaAlDCEWVbZZ6fvk/lIaUUpRoA2gJQwhpzQhZhjb1P5SGlFKUaANoCUMIpzaLjY4Z9T+UhpRSlGgDaAlDCIl2k11MuPo/lIaUUpRoA2gJQwhouvj6pPe1P5SGlFKUaANoCUMIaLr4+qT3tT+UhpRSlGgDaAlDCM01341FdRFAlIaUUpRoA2gJQwi8AkbS2fHlP5SGlFKUaANoCUMIIn2rkH8w5z+UhpRSlGgDaAlDCCJ9q5B/MOc/lIaUUpRoA2gJQwi8eqDLYDPjP5SGlFKUaANoCUMIvHqgy2Az4z+UhpRSlGgDaAlDCLx6oMtgM+M/lIaUUpRoA2gJQwi8eqDLYDPjP5SGlFKUaANoCUMIIn2rkH8w5z+UhpRSlGgDaAlDCCJ9q5B/MOc/lIaUUpRoA2gJQwgmm4lq3iz1P5SGlFKUaANoCUMIJpuJat4s9T+UhpRSlGgDaAlDCE/JYvKogPs/lIaUUpRoA2gJQwiEGEas+Ff4P5SGlFKUaANoCUMILfnWGzKN9z+UhpRSlGgDaAlDCIQYRqz4V/g/lIaUUpRoA2gJQwhPyWLyqID7P5SGlFKUaANoCUMI6UFSQ8jG+j+UhpRSlGUu

>  <experimental dG reference units>  (15) 
kcal/mol

>  <experimental dG reference field>  (15) 
r_exp_dg

>  <kJ/mol experimental dG>  (15) 
-32.426

>  <kcal/mol experimental dG>  (15) 
-7.75

$$$$
23330
     RDKit          3D

 57 59  0  0  1  0  0  0  0  0999 V2000
   43.4349   13.9762   16.5152 S   0  0  0  0  0  0  0  0  0  0  0  0
   43.2388   15.3847   15.4302 C   0  0  0  0  0  0  0  0  0  0  0  0
   42.3225   15.1290   14.5121 C   0  0  0  0  0  0  0  0  0  0  0  0
   41.7595   13.7729   14.6019 C   0  0  0  0  0  0  0  0  0  0  0  0
   42.1868   13.0208   15.6281 C   0  0  0  0  0  0  0  0  0  0  0  0
   43.9400   16.6164   15.7216 C   0  0  0  0  0  0  0  0  0  0  0  0
   44.3927   16.6325   16.8863 O   0  0  0  0  0  0  0  0  0  0  0  0
   44.0706   17.5599   14.9107 O   0  0  0  0  0  0  0  0  0  0  0  0
   41.8822   11.6386   16.0501 C   0  0  0  0  0  0  0  0  0  0  0  0
   40.5678   11.0458   15.8591 C   0  0  0  0  0  0  0  0  0  0  0  0
   40.3696    9.6768   16.2269 C   0  0  0  0  0  0  0  0  0  0  0  0
   41.4677    8.9015   16.8005 C   0  0  0  0  0  0  0  0  0  0  0  0
   42.7809    9.4864   17.0095 C   0  0  0  0  0  0  0  0  0  0  0  0
   42.9621   10.8634   16.6495 C   0  0  0  0  0  0  0  0  0  0  0  0
   40.5691   13.1548   13.2596 Br  0  0  0  0  0  0  0  0  0  0  0  0
   42.0383   16.0154   13.5689 O   0  0  0  0  0  0  0  0  0  0  0  0
   40.8225   16.7172   13.7275 C   0  0  0  0  0  0  0  0  0  0  0  0
   40.5922   17.4164   12.4629 C   0  0  0  0  0  0  0  0  0  0  0  0
   39.4465   17.8760   12.3022 O   0  0  0  0  0  0  0  0  0  0  0  0
   41.5197   17.5214   11.6281 O   0  0  0  0  0  0  0  0  0  0  0  0
   39.1083    9.2240   15.9963 N   0  0  0  0  0  0  0  0  0  0  0  0
   38.8494    7.8171   15.7094 C   0  0  0  0  0  0  0  0  0  0  0  0
   38.3490    7.1254   16.9951 C   0  0  0  0  0  0  0  0  0  0  0  0
   37.9077    5.6500   16.7807 C   0  0  0  0  0  0  0  0  0  0  0  0
   36.9396    5.5528   15.5530 C   0  0  0  0  0  0  0  0  0  0  0  0
   37.2934    6.3413   14.2473 C   0  0  0  0  0  0  0  0  0  0  0  0
   37.7633    7.7748   14.6147 C   0  0  0  0  0  0  0  0  0  0  0  0
   39.7913   11.6492   15.4448 H   0  0  0  0  0  0  0  0  0  0  0  0
   41.3043    7.8695   17.0715 H   0  0  0  0  0  0  0  0  0  0  0  0
   43.5906    8.9076   17.4289 H   0  0  0  0  0  0  0  0  0  0  0  0
   43.9418   11.2995   16.7826 H   0  0  0  0  0  0  0  0  0  0  0  0
   40.9173   17.4455   14.5357 H   0  0  0  0  0  0  0  0  0  0  0  0
   39.9903   16.0541   13.9763 H   0  0  0  0  0  0  0  0  0  0  0  0
   38.5575    9.8749   15.4355 H   0  0  0  0  0  0  0  0  0  0  0  0
   39.7591    7.3397   15.3379 H   0  0  0  0  0  0  0  0  0  0  0  0
   37.5050    7.6965   17.3874 H   0  0  0  0  0  0  0  0  0  0  0  0
   39.1192    7.1704   17.7665 H   0  0  0  0  0  0  0  0  0  0  0  0
   38.1230    8.2820   13.7169 H   0  0  0  0  0  0  0  0  0  0  0  0
   36.9015    8.3545   14.9546 H   0  0  0  0  0  0  0  0  0  0  0  0
   35.9982    6.4707   13.4107 C   0  0  0  0  0  0  0  0  0  0  0  0
   35.6090    5.4930   13.1236 H   0  0  0  0  0  0  0  0  0  0  0  0
   35.2081    6.9876   13.9566 H   0  0  0  0  0  0  0  0  0  0  0  0
   36.1711    7.0337   12.4934 H   0  0  0  0  0  0  0  0  0  0  0  0
   38.3871    5.6218   13.4220 C   0  0  0  0  0  0  0  0  0  0  0  0
   38.4927    6.0737   12.4351 H   0  0  0  0  0  0  0  0  0  0  0  0
   39.3741    5.6662   13.8735 H   0  0  0  0  0  0  0  0  0  0  0  0
   38.1432    4.5707   13.2653 H   0  0  0  0  0  0  0  0  0  0  0  0
   37.1204    5.2034   18.0353 C   0  0  0  0  0  0  0  0  0  0  0  0
   36.7772    4.1721   17.9425 H   0  0  0  0  0  0  0  0  0  0  0  0
   37.7367    5.2580   18.9339 H   0  0  0  0  0  0  0  0  0  0  0  0
   36.2400    5.8231   18.2125 H   0  0  0  0  0  0  0  0  0  0  0  0
   39.1514    4.7513   16.5926 C   0  0  0  0  0  0  0  0  0  0  0  0
   38.8746    3.7414   16.2884 H   0  0  0  0  0  0  0  0  0  0  0  0
   39.8570    5.1348   15.8608 H   0  0  0  0  0  0  0  0  0  0  0  0
   39.7073    4.6604   17.5266 H   0  0  0  0  0  0  0  0  0  0  0  0
   35.9666    5.9189   15.8884 H   0  0  0  0  0  0  0  0  0  0  0  0
   36.7597    4.5042   15.3095 H   0  0  0  0  0  0  0  0  0  0  0  0
  1  2  1  0
  1  5  1  0
  2  3  2  0
  2  6  1  0
  3  4  1  0
  3 16  1  0
  4  5  2  0
  4 15  1  0
  5  9  1  0
  6  7  2  0
  6  8  1  0
  9 10  2  0
  9 14  1  0
 10 11  1  0
 10 28  1  0
 11 12  2  0
 11 21  1  0
 12 13  1  0
 12 29  1  0
 13 14  2  0
 13 30  1  0
 14 31  1  0
 16 17  1  0
 17 18  1  0
 17 32  1  0
 17 33  1  0
 18 19  1  0
 18 20  2  0
 21 22  1  0
 21 34  1  0
 22 23  1  0
 22 27  1  0
 22 35  1  0
 23 24  1  0
 23 36  1  0
 23 37  1  0
 24 25  1  0
 24 48  1  0
 24 52  1  0
 25 26  1  0
 25 56  1  0
 25 57  1  0
 26 27  1  0
 26 40  1  0
 26 44  1  0
 27 38  1  0
 27 39  1  0
 40 41  1  0
 40 42  1  0
 40 43  1  0
 44 45  1  0
 44 46  1  0
 44 47  1  0
 48 49  1  0
 48 50  1  0
 48 51  1  0
 52 53  1  0
 52 54  1  0
 52 55  1  0
M  CHG  2   8  -1  19  -1
M  END
>  <r_exp_dg>  (16) 
-10.13

>  <AmberAM1BCCCache>  (16) 
gASVlgQAAAAAAABdlCiMFm51bXB5Ll9jb3JlLm11bHRpYXJyYXmUjAZzY2FsYXKUk5SMBW51bXB5lIwFZHR5cGWUk5SMAmY4lImIh5RSlChLA4wBPJROTk5K/////0r/////SwB0lGJDCPZxtbh6CtY/lIaUUpRoA2gJQwi9QHMdYE0AwJSGlFKUaANoCUMItlY1P0Up+j+UhpRSlGgDaAlDCIAYyCe3YeG/lIaUUpRoA2gJQwjd0aoK/mX9v5SGlFKUaANoCUMI+Xes8F8lJkCUhpRSlGgDaAlDCO94wO8iTCPAlIaUUpRoA2gJQwjveMDvIkwjwJSGlFKUaANoCUMIb9jtUQ4l7D+UhpRSlGgDaAlDCNIlW7VIIv6/lIaUUpRoA2gJQwgru6HpDxLyP5SGlFKUaANoCUMI27KxQoPgAcCUhpRSlGgDaAlDCMbUb1vtJ/e/lIaUUpRoA2gJQwhHmhJtBYj7v5SGlFKUaANoCUMIQCx6rr+q87+UhpRSlGgDaAlDCLmXDH6kIAvAlIaUUpRoA2gJQwjMS7bg6o2xP5SGlFKUaANoCUMIilH33ASjJUCUhpRSlGgDaAlDCEny1wewEiTAlIaUUpRoA2gJQwhJ8tcHsBIkwJSGlFKUaANoCUMI6DzK2RyWIMCUhpRSlGgDaAlDCGGeOEiqrgFAlIaUUpRoA2gJQwiWIUhQHgLwv5SGlFKUaANoCUMIubhNoh8e4b+UhpRSlGgDaAlDCGVY0Pd0AOe/lIaUUpRoA2gJQwi5uE2iHx7hv5SGlFKUaANoCUMIliFIUB4C8L+UhpRSlGgDaAlDCMhg0kVOzfs/lIaUUpRoA2gJQwg9dOXIQub0P5SGlFKUaANoCUMIvA/n6/LS9D+UhpRSlGgDaAlDCLQ8313PMvs/lIaUUpRoA2gJQwiJA5WKnEzkP5SGlFKUaANoCUMIiQOVipxM5D+UhpRSlGgDaAlDCPsx2xJFJxFAlIaUUpRoA2gJQwj/oe0wwSXmP5SGlFKUaANoCUMIt2J6uJuL4j+UhpRSlGgDaAlDCLdieribi+I/lIaUUpRoA2gJQwi3Ynq4m4viP5SGlFKUaANoCUMIt2J6uJuL4j+UhpRSlGgDaAlDCCThPFtNifC/lIaUUpRoA2gJQwgqeBNBMavYP5SGlFKUaANoCUMIKngTQTGr2D+UhpRSlGgDaAlDCCp4E0Exq9g/lIaUUpRoA2gJQwgk4TxbTYnwv5SGlFKUaANoCUMIKngTQTGr2D+UhpRSlGgDaAlDCCp4E0Exq9g/lIaUUpRoA2gJQwgqeBNBMavYP5SGlFKUaANoCUMIJOE8W02J8L+UhpRSlGgDaAlDCCp4E0Exq9g/lIaUUpRoA2gJQwgqeBNBMavYP5SGlFKUaANoCUMIKngTQTGr2D+UhpRSlGgDaAlDCCThPFtNifC/lIaUUpRoA2gJQwgqeBNBMavYP5SGlFKUaANoCUMIKngTQTGr2D+UhpRSlGgDaAlDCCp4E0Exq9g/lIaUUpRoA2gJQwhidAkX3BzeP5SGlFKUaANoCUMIYnQJF9wc3j+UhpRSlGUu

>  <experimental dG reference units>  (16) 
kcal/mol

>  <experimental dG reference field>  (16) 
r_exp_dg

>  <kJ/mol experimental dG>  (16) 
-42.38392

>  <kcal/mol experimental dG>  (16) 
-10.13

$$$$
20667
     RDKit          3D

 60 63  0  0  1  0  0  0  0  0999 V2000
   43.4349   13.9762   16.5152 S   0  0  0  0  0  0  0  0  0  0  0  0
   43.2388   15.3847   15.4302 C   0  0  0  0  0  0  0  0  0  0  0  0
   42.3225   15.1290   14.5121 C   0  0  0  0  0  0  0  0  0  0  0  0
   41.7595   13.7729   14.6019 C   0  0  0  0  0  0  0  0  0  0  0  0
   42.1868   13.0208   15.6281 C   0  0  0  0  0  0  0  0  0  0  0  0
   43.9400   16.6164   15.7216 C   0  0  0  0  0  0  0  0  0  0  0  0
   44.3927   16.6325   16.8863 O   0  0  0  0  0  0  0  0  0  0  0  0
   44.0706   17.5599   14.9107 O   0  0  0  0  0  0  0  0  0  0  0  0
   41.8822   11.6386   16.0501 C   0  0  0  0  0  0  0  0  0  0  0  0
   40.5678   11.0458   15.8591 C   0  0  0  0  0  0  0  0  0  0  0  0
   40.3696    9.6768   16.2269 C   0  0  0  0  0  0  0  0  0  0  0  0
   41.4677    8.9015   16.8005 C   0  0  0  0  0  0  0  0  0  0  0  0
   42.7809    9.4864   17.0095 C   0  0  0  0  0  0  0  0  0  0  0  0
   42.9621   10.8634   16.6495 C   0  0  0  0  0  0  0  0  0  0  0  0
   40.5688   13.1530   13.2603 Br  0  0  0  0  0  0  0  0  0  0  0  0
   42.0383   16.0154   13.5689 O   0  0  0  0  0  0  0  0  0  0  0  0
   40.8225   16.7172   13.7275 C   0  0  0  0  0  0  0  0  0  0  0  0
   40.5922   17.4164   12.4629 C   0  0  0  0  0  0  0  0  0  0  0  0
   39.4465   17.8760   12.3022 O   0  0  0  0  0  0  0  0  0  0  0  0
   41.5197   17.5214   11.6281 O   0  0  0  0  0  0  0  0  0  0  0  0
   39.1083    9.2240   15.9963 N   0  0  0  0  0  0  0  0  0  0  0  0
   38.8278    7.8651   15.6453 C   0  0  0  0  0  0  0  0  0  0  0  0
   37.3098    7.7080   15.5483 C   0  0  0  0  0  0  0  0  0  0  0  0
   36.8797    6.3606   15.0162 C   0  0  0  0  0  0  0  0  0  0  0  0
   37.6451    6.1119   13.7935 N   0  0  0  0  0  0  0  0  0  0  0  0
   39.1091    6.1658   13.7891 C   0  0  0  0  0  0  0  0  0  0  0  0
   39.5301    7.5042   14.3382 C   0  0  0  0  0  0  0  0  0  0  0  0
   36.8271    5.0850   12.5942 S   0  0  0  0  0  0  0  0  0  0  0  0
   37.6608    5.0112   11.3942 O   0  0  0  0  0  0  0  0  0  0  0  0
   35.4374    5.5435   12.4708 O   0  0  0  0  0  0  0  0  0  0  0  0
   36.8129    3.3913   13.4008 C   0  0  0  0  0  0  0  0  0  0  0  0
   36.1892    2.3341   12.5054 C   0  0  0  0  0  0  0  0  0  0  0  0
   36.9940    1.6134   11.6207 C   0  0  0  0  0  0  0  0  0  0  0  0
   36.4211    0.6593   10.7847 C   0  0  0  0  0  0  0  0  0  0  0  0
   35.0484    0.4272   10.8390 C   0  0  0  0  0  0  0  0  0  0  0  0
   34.2435    1.1375   11.7264 C   0  0  0  0  0  0  0  0  0  0  0  0
   34.8141    2.0942   12.5620 C   0  0  0  0  0  0  0  0  0  0  0  0
   39.7924   11.6509   15.4452 H   0  0  0  0  0  0  0  0  0  0  0  0
   41.3036    7.8697   17.0715 H   0  0  0  0  0  0  0  0  0  0  0  0
   43.5907    8.9077   17.4289 H   0  0  0  0  0  0  0  0  0  0  0  0
   43.9418   11.2995   16.7826 H   0  0  0  0  0  0  0  0  0  0  0  0
   40.9172   17.4454   14.5358 H   0  0  0  0  0  0  0  0  0  0  0  0
   39.9904   16.0539   13.9762 H   0  0  0  0  0  0  0  0  0  0  0  0
   38.5796    9.8940   15.4374 H   0  0  0  0  0  0  0  0  0  0  0  0
   39.2004    7.2119   16.4377 H   0  0  0  0  0  0  0  0  0  0  0  0
   36.9011    8.4789   14.8900 H   0  0  0  0  0  0  0  0  0  0  0  0
   36.8511    7.8747   16.5239 H   0  0  0  0  0  0  0  0  0  0  0  0
   35.8098    6.3485   14.8015 H   0  0  0  0  0  0  0  0  0  0  0  0
   37.0818    5.5514   15.7200 H   0  0  0  0  0  0  0  0  0  0  0  0
   39.4818    6.0238   12.7732 H   0  0  0  0  0  0  0  0  0  0  0  0
   39.4868    5.3356   14.3884 H   0  0  0  0  0  0  0  0  0  0  0  0
   40.6127    7.5066   14.4696 H   0  0  0  0  0  0  0  0  0  0  0  0
   39.3160    8.2672   13.5868 H   0  0  0  0  0  0  0  0  0  0  0  0
   36.2709    3.4979   14.3368 H   0  0  0  0  0  0  0  0  0  0  0  0
   37.8484    3.1587   13.6377 H   0  0  0  0  0  0  0  0  0  0  0  0
   38.0586    1.7971   11.5663 H   0  0  0  0  0  0  0  0  0  0  0  0
   37.0396    0.1073   10.0898 H   0  0  0  0  0  0  0  0  0  0  0  0
   34.6014   -0.3027   10.1781 H   0  0  0  0  0  0  0  0  0  0  0  0
   33.1775    0.9575   11.7549 H   0  0  0  0  0  0  0  0  0  0  0  0
   34.1817    2.6553   13.2365 H   0  0  0  0  0  0  0  0  0  0  0  0
  1  2  1  0
  1  5  1  0
  2  3  2  0
  2  6  1  0
  3  4  1  0
  3 16  1  0
  4  5  2  0
  4 15  1  0
  5  9  1  0
  6  7  2  0
  6  8  1  0
  9 10  2  0
  9 14  1  0
 10 11  1  0
 10 38  1  0
 11 12  2  0
 11 21  1  0
 12 13  1  0
 12 39  1  0
 13 14  2  0
 13 40  1  0
 14 41  1  0
 16 17  1  0
 17 18  1  0
 17 42  1  0
 17 43  1  0
 18 19  1  0
 18 20  2  0
 21 22  1  0
 21 44  1  0
 22 23  1  0
 22 27  1  0
 22 45  1  0
 23 24  1  0
 23 46  1  0
 23 47  1  0
 24 25  1  0
 24 48  1  0
 24 49  1  0
 25 26  1  0
 25 28  1  0
 26 27  1  0
 26 50  1  0
 26 51  1  0
 27 52  1  0
 27 53  1  0
 28 29  2  0
 28 30  2  0
 28 31  1  0
 31 32  1  0
 31 54  1  0
 31 55  1  0
 32 33  2  0
 32 37  1  0
 33 34  1  0
 33 56  1  0
 34 35  2  0
 34 57  1  0
 35 36  1  0
 35 58  1  0
 36 37  2  0
 36 59  1  0
 37 60  1  0
M  CHG  2   8  -1  19  -1
M  END
>  <r_exp_dg>  (17) 
-11.42

>  <AmberAM1BCCCache>  (17) 
gASVzwQAAAAAAABdlCiMFm51bXB5Ll9jb3JlLm11bHRpYXJyYXmUjAZzY2FsYXKUk5SMBW51bXB5lIwFZHR5cGWUk5SMAmY4lImIh5RSlChLA4wBPJROTk5K/////0r/////SwB0lGJDCNaQUf1UZ9Y/lIaUUpRoA2gJQwhswIIWjx0AwJSGlFKUaANoCUMIV1cWTeeI+j+UhpRSlGgDaAlDCHm3i4bbXuC/lIaUUpRoA2gJQwgqQicMkaX+v5SGlFKUaANoCUMI8rJ5Sg0kJkCUhpRSlGgDaAlDCI/rt+RPRSPAlIaUUpRoA2gJQwiP67fkT0UjwJSGlFKUaANoCUMI0SGWPVAZ7j+UhpRSlGgDaAlDCO4X1gKktQDAlIaUUpRoA2gJQwjjRYklz7PuP5SGlFKUaANoCUMIsbv+vtZNAMCUhpRSlGgDaAlDCECKe6kJsPe/lIaUUpRoA2gJQwjepGbiF6v4v5SGlFKUaANoCUMIktCicj7X8r+UhpRSlGgDaAlDCDcWO2Hl/ArAlIaUUpRoA2gJQwg7ozML1WayP5SGlFKUaANoCUMIzXKUNOeiJUCUhpRSlGgDaAlDCHpeQzwqDCTAlIaUUpRoA2gJQwh6XkM8KgwkwJSGlFKUaANoCUMIAh7vrRZ+IMCUhpRSlGgDaAlDCELryErl4AFAlIaUUpRoA2gJQwg4cNwuUaT0v5SGlFKUaANoCUMICeiUgQgSBUCUhpRSlGgDaAlDCMU8EoCHWSPAlIaUUpRoA2gJQwgJ6JSBCBIFQJSGlFKUaANoCUMIOHDcLlGk9L+UhpRSlGgDaAlDCGwyu7St9zBAlIaUUpRoA2gJQwhBEBCZgaUewJSGlFKUaANoCUMIQRAQmYGlHsCUhpRSlGgDaAlDCH3NvzlPwwfAlIaUUpRoA2gJQwhQnJ0ouonlv5SGlFKUaANoCUMIDR6i8Yzg9b+UhpRSlGgDaAlDCNfbaSh4hPi/lIaUUpRoA2gJQwge1+XQv7T4v5SGlFKUaANoCUMI19tpKHiE+L+UhpRSlGgDaAlDCA0eovGM4PW/lIaUUpRoA2gJQwjYuxQqN5z6P5SGlFKUaANoCUMIKDk/Ocyc9T+UhpRSlGgDaAlDCKbUQFx8ifU/lIaUUpRoA2gJQwhSI2qK+5v8P5SGlFKUaANoCUMIVxWl2OVi5D+UhpRSlGgDaAlDCFcVpdjlYuQ/lIaUUpRoA2gJQwi80OwF144RQJSGlFKUaANoCUMIdq7kz7ln5D+UhpRSlGgDaAlDCDb3X/dPoec/lIaUUpRoA2gJQwg291/3T6HnP5SGlFKUaANoCUMIS9QEjHzl4j+UhpRSlGgDaAlDCEvUBIx85eI/lIaUUpRoA2gJQwhL1ASMfOXiP5SGlFKUaANoCUMIS9QEjHzl4j+UhpRSlGgDaAlDCDb3X/dPoec/lIaUUpRoA2gJQwg291/3T6HnP5SGlFKUaANoCUMI5xNrO18O9T+UhpRSlGgDaAlDCOcTaztfDvU/lIaUUpRoA2gJQwgUC0F9yYj7P5SGlFKUaANoCUMIuY2EO69d+D+UhpRSlGgDaAlDCGFuFavokvc/lIaUUpRoA2gJQwi5jYQ7r134P5SGlFKUaANoCUMIFAtBfcmI+z+UhpRSlGUu

>  <experimental dG reference units>  (17) 
kcal/mol

>  <experimental dG reference field>  (17) 
r_exp_dg

>  <kJ/mol experimental dG>  (17) 
-47.78128

>  <kcal/mol experimental dG>  (17) 
-11.42

$$$$
20670
     RDKit          3D

 45 47  0  0  1  0  0  0  0  0999 V2000
   43.4349   13.9762   16.5152 S   0  0  0  0  0  0  0  0  0  0  0  0
   43.2388   15.3847   15.4302 C   0  0  0  0  0  0  0  0  0  0  0  0
   42.3225   15.1290   14.5121 C   0  0  0  0  0  0  0  0  0  0  0  0
   41.7595   13.7729   14.6019 C   0  0  0  0  0  0  0  0  0  0  0  0
   42.1868   13.0208   15.6281 C   0  0  0  0  0  0  0  0  0  0  0  0
   43.9400   16.6164   15.7216 C   0  0  0  0  0  0  0  0  0  0  0  0
   44.3927   16.6325   16.8863 O   0  0  0  0  0  0  0  0  0  0  0  0
   44.0706   17.5599   14.9107 O   0  0  0  0  0  0  0  0  0  0  0  0
   41.8822   11.6386   16.0501 C   0  0  0  0  0  0  0  0  0  0  0  0
   40.5678   11.0458   15.8591 C   0  0  0  0  0  0  0  0  0  0  0  0
   40.3696    9.6768   16.2269 C   0  0  0  0  0  0  0  0  0  0  0  0
   41.4677    8.9015   16.8005 C   0  0  0  0  0  0  0  0  0  0  0  0
   42.7809    9.4864   17.0095 C   0  0  0  0  0  0  0  0  0  0  0  0
   42.9621   10.8634   16.6495 C   0  0  0  0  0  0  0  0  0  0  0  0
   40.5691   13.1539   13.2598 Br  0  0  0  0  0  0  0  0  0  0  0  0
   42.0383   16.0154   13.5689 O   0  0  0  0  0  0  0  0  0  0  0  0
   40.8225   16.7172   13.7275 C   0  0  0  0  0  0  0  0  0  0  0  0
   40.5922   17.4164   12.4629 C   0  0  0  0  0  0  0  0  0  0  0  0
   39.4465   17.8760   12.3022 O   0  0  0  0  0  0  0  0  0  0  0  0
   41.5197   17.5214   11.6281 O   0  0  0  0  0  0  0  0  0  0  0  0
   39.1083    9.2240   15.9963 N   0  0  0  0  0  0  0  0  0  0  0  0
   38.8921    7.8561   15.5364 C   0  0  0  0  0  0  0  0  0  0  0  0
   37.3851    7.5484   15.6650 C   0  0  0  0  0  0  0  0  0  0  0  0
   37.0292    6.1684   15.0716 C   0  0  0  0  0  0  0  0  0  0  0  0
   37.5078    6.0346   13.6113 C   0  0  0  0  0  0  0  0  0  0  0  0
   39.0100    6.3507   13.4698 C   0  0  0  0  0  0  0  0  0  0  0  0
   39.3580    7.7293   14.0679 C   0  0  0  0  0  0  0  0  0  0  0  0
   39.7921   11.6495   15.4438 H   0  0  0  0  0  0  0  0  0  0  0  0
   41.3072    7.8708   17.0764 H   0  0  0  0  0  0  0  0  0  0  0  0
   43.5905    8.9079   17.4297 H   0  0  0  0  0  0  0  0  0  0  0  0
   43.9417   11.2996   16.7828 H   0  0  0  0  0  0  0  0  0  0  0  0
   40.9172   17.4455   14.5357 H   0  0  0  0  0  0  0  0  0  0  0  0
   39.9903   16.0540   13.9762 H   0  0  0  0  0  0  0  0  0  0  0  0
   38.5590    9.9032   15.4691 H   0  0  0  0  0  0  0  0  0  0  0  0
   39.4525    7.1545   16.1579 H   0  0  0  0  0  0  0  0  0  0  0  0
   36.7996    8.3121   15.1479 H   0  0  0  0  0  0  0  0  0  0  0  0
   37.0811    7.5843   16.7122 H   0  0  0  0  0  0  0  0  0  0  0  0
   35.9516    6.0065   15.1278 H   0  0  0  0  0  0  0  0  0  0  0  0
   37.4871    5.3844   15.6773 H   0  0  0  0  0  0  0  0  0  0  0  0
   39.3068    6.3139   12.4204 H   0  0  0  0  0  0  0  0  0  0  0  0
   39.5961    5.5810   13.9752 H   0  0  0  0  0  0  0  0  0  0  0  0
   40.4344    7.8872   14.0021 H   0  0  0  0  0  0  0  0  0  0  0  0
   38.8940    8.5078   13.4588 H   0  0  0  0  0  0  0  0  0  0  0  0
   37.3013    5.0299   13.2398 H   0  0  0  0  0  0  0  0  0  0  0  0
   36.9349    6.7157   12.9793 H   0  0  0  0  0  0  0  0  0  0  0  0
  1  2  1  0
  1  5  1  0
  2  3  2  0
  2  6  1  0
  3  4  1  0
  3 16  1  0
  4  5  2  0
  4 15  1  0
  5  9  1  0
  6  7  2  0
  6  8  1  0
  9 10  2  0
  9 14  1  0
 10 11  1  0
 10 28  1  0
 11 12  2  0
 11 21  1  0
 12 13  1  0
 12 29  1  0
 13 14  2  0
 13 30  1  0
 14 31  1  0
 16 17  1  0
 17 18  1  0
 17 32  1  0
 17 33  1  0
 18 19  1  0
 18 20  2  0
 21 22  1  0
 21 34  1  0
 22 23  1  0
 22 27  1  0
 22 35  1  0
 23 24  1  0
 23 36  1  0
 23 37  1  0
 24 25  1  0
 24 38  1  0
 24 39  1  0
 25 26  1  0
 25 44  1  0
 25 45  1  0
 26 27  1  0
 26 40  1  0
 26 41  1  0
 27 42  1  0
 27 43  1  0
M  CHG  2   8  -1  19  -1
M  END
>  <r_exp_dg>  (18) 
-9.08

>  <AmberAM1BCCCache>  (18) 
gASVsgMAAAAAAABdlCiMFm51bXB5Ll9jb3JlLm11bHRpYXJyYXmUjAZzY2FsYXKUk5SMBW51bXB5lIwFZHR5cGWUk5SMAmY4lImIh5RSlChLA4wBPJROTk5K/////0r/////SwB0lGJDCEqLaj+WCNc/lIaUUpRoA2gJQwgk/qxAKGkAwJSGlFKUaANoCUMI3QeRcrw7+j+UhpRSlGgDaAlDCGoUXyl4kOG/lIaUUpRoA2gJQwg0vFD6NkD9v5SGlFKUaANoCUMIRTuo3Q8kJkCUhpRSlGgDaAlDCFd1TH13UCPAlIaUUpRoA2gJQwhXdUx9d1AjwJSGlFKUaANoCUMIcAt9Tcks7j+UhpRSlGgDaAlDCDJmTl9CWADAlIaUUpRoA2gJQwi1e7PS4Jz1P5SGlFKUaANoCUMISxBwKVjFA8CUhpRSlGgDaAlDCPPkNQfpf/W/lIaUUpRoA2gJQwhqNPVDXIr8v5SGlFKUaANoCUMI8K7JhtiR87+UhpRSlGgDaAlDCFKLs9jYHQvAlIaUUpRoA2gJQwgzgmT+3E+zP5SGlFKUaANoCUMI1RTzybShJUCUhpRSlGgDaAlDCCEixJmaFCTAlIaUUpRoA2gJQwghIsSZmhQkwJSGlFKUaANoCUMI0I3kiIvOIMCUhpRSlGgDaAlDCHwrpyC8rwJAlIaUUpRoA2gJQwibqbDXh73xv5SGlFKUaANoCUMIvAOicpxw7L+UhpRSlGgDaAlDCDENqiENEOy/lIaUUpRoA2gJQwi8A6JynHDsv5SGlFKUaANoCUMIm6mw14e98b+UhpRSlGgDaAlDCC1ErWdt6fs/lIaUUpRoA2gJQwh5BKZOCz70P5SGlFKUaANoCUMIcflxgrKu9D+UhpRSlGgDaAlDCDRP4TPGePs/lIaUUpRoA2gJQwj7aKQrW1HkP5SGlFKUaANoCUMI+2ikK1tR5D+UhpRSlGgDaAlDCMaCsLwyPxFAlIaUUpRoA2gJQwhuz9CTSjvgP5SGlFKUaANoCUMI3HCAveMA5D+UhpRSlGgDaAlDCNxwgL3jAOQ/lIaUUpRoA2gJQwjg0k3qgGPeP5SGlFKUaANoCUMI4NJN6oBj3j+UhpRSlGgDaAlDCODSTeqAY94/lIaUUpRoA2gJQwjg0k3qgGPeP5SGlFKUaANoCUMI3HCAveMA5D+UhpRSlGgDaAlDCNxwgL3jAOQ/lIaUUpRoA2gJQwjQqtqGuMbVP5SGlFKUaANoCUMI0KrahrjG1T+UhpRSlGUu

>  <experimental dG reference units>  (18) 
kcal/mol

>  <experimental dG reference field>  (18) 
r_exp_dg

>  <kJ/mol experimental dG>  (18) 
-37.99072

>  <kcal/mol experimental dG>  (18) 
-9.08

$$$$
23483
     RDKit          3D

 57 60  0  0  1  0  0  0  0  0999 V2000
   43.4349   13.9762   16.5152 S   0  0  0  0  0  0  0  0  0  0  0  0
   43.2388   15.3847   15.4302 C   0  0  0  0  0  0  0  0  0  0  0  0
   42.3225   15.1290   14.5121 C   0  0  0  0  0  0  0  0  0  0  0  0
   41.7595   13.7729   14.6019 C   0  0  0  0  0  0  0  0  0  0  0  0
   42.1868   13.0208   15.6281 C   0  0  0  0  0  0  0  0  0  0  0  0
   43.9400   16.6164   15.7216 C   0  0  0  0  0  0  0  0  0  0  0  0
   44.3927   16.6325   16.8863 O   0  0  0  0  0  0  0  0  0  0  0  0
   44.0706   17.5599   14.9107 O   0  0  0  0  0  0  0  0  0  0  0  0
   41.8822   11.6386   16.0501 C   0  0  0  0  0  0  0  0  0  0  0  0
   40.5678   11.0458   15.8591 C   0  0  0  0  0  0  0  0  0  0  0  0
   40.3696    9.6768   16.2269 C   0  0  0  0  0  0  0  0  0  0  0  0
   41.4677    8.9015   16.8005 C   0  0  0  0  0  0  0  0  0  0  0  0
   42.7809    9.4864   17.0095 C   0  0  0  0  0  0  0  0  0  0  0  0
   42.9621   10.8634   16.6495 C   0  0  0  0  0  0  0  0  0  0  0  0
   40.5688   13.1530   13.2604 Br  0  0  0  0  0  0  0  0  0  0  0  0
   42.0383   16.0154   13.5689 O   0  0  0  0  0  0  0  0  0  0  0  0
   40.8225   16.7172   13.7275 C   0  0  0  0  0  0  0  0  0  0  0  0
   40.5922   17.4164   12.4629 C   0  0  0  0  0  0  0  0  0  0  0  0
   39.4465   17.8760   12.3022 O   0  0  0  0  0  0  0  0  0  0  0  0
   41.5197   17.5214   11.6281 O   0  0  0  0  0  0  0  0  0  0  0  0
   39.1083    9.2240   15.9963 N   0  0  0  0  0  0  0  0  0  0  0  0
   38.8278    7.8651   15.6453 C   0  0  0  0  0  0  0  0  0  0  0  0
   37.3098    7.7080   15.5483 C   0  0  0  0  0  0  0  0  0  0  0  0
   36.8797    6.3606   15.0162 C   0  0  0  0  0  0  0  0  0  0  0  0
   37.6451    6.1119   13.7935 N   0  0  0  0  0  0  0  0  0  0  0  0
   39.1091    6.1658   13.7891 C   0  0  0  0  0  0  0  0  0  0  0  0
   39.5301    7.5042   14.3382 C   0  0  0  0  0  0  0  0  0  0  0  0
   36.9212    4.8807   12.7261 S   0  0  0  0  0  0  0  0  0  0  0  0
   37.5994    4.9381   11.4269 O   0  0  0  0  0  0  0  0  0  0  0  0
   35.4585    5.0212   12.7715 O   0  0  0  0  0  0  0  0  0  0  0  0
   39.7923   11.6505   15.4451 H   0  0  0  0  0  0  0  0  0  0  0  0
   41.3039    7.8696   17.0714 H   0  0  0  0  0  0  0  0  0  0  0  0
   43.5907    8.9077   17.4289 H   0  0  0  0  0  0  0  0  0  0  0  0
   43.9418   11.2995   16.7826 H   0  0  0  0  0  0  0  0  0  0  0  0
   39.9904   16.0540   13.9761 H   0  0  0  0  0  0  0  0  0  0  0  0
   40.9171   17.4454   14.5357 H   0  0  0  0  0  0  0  0  0  0  0  0
   38.5792    9.8944   15.4383 H   0  0  0  0  0  0  0  0  0  0  0  0
   39.2004    7.2101   16.4369 H   0  0  0  0  0  0  0  0  0  0  0  0
   36.9010    8.4797   14.8909 H   0  0  0  0  0  0  0  0  0  0  0  0
   36.8512    7.8742   16.5241 H   0  0  0  0  0  0  0  0  0  0  0  0
   35.8107    6.3542   14.7991 H   0  0  0  0  0  0  0  0  0  0  0  0
   37.0821    5.5513   15.7198 H   0  0  0  0  0  0  0  0  0  0  0  0
   39.4796    6.0236   12.7723 H   0  0  0  0  0  0  0  0  0  0  0  0
   39.4868    5.3389   14.3932 H   0  0  0  0  0  0  0  0  0  0  0  0
   40.6128    7.5063   14.4698 H   0  0  0  0  0  0  0  0  0  0  0  0
   39.3168    8.2677   13.5870 H   0  0  0  0  0  0  0  0  0  0  0  0
   38.0300    0.8989   14.6990 C   0  0  0  0  0  0  0  0  0  0  0  0
   36.8191    1.5114   15.0173 C   0  0  0  0  0  0  0  0  0  0  0  0
   36.4753    2.7176   14.4117 C   0  0  0  0  0  0  0  0  0  0  0  0
   37.3448    3.3053   13.4865 C   0  0  0  0  0  0  0  0  0  0  0  0
   38.5615    2.6884   13.1755 C   0  0  0  0  0  0  0  0  0  0  0  0
   38.9025    1.4821   13.7818 C   0  0  0  0  0  0  0  0  0  0  0  0
   38.2962   -0.0383   15.1690 H   0  0  0  0  0  0  0  0  0  0  0  0
   36.1499    1.0518   15.7321 H   0  0  0  0  0  0  0  0  0  0  0  0
   35.5369    3.1949   14.6609 H   0  0  0  0  0  0  0  0  0  0  0  0
   39.2421    3.1438   12.4679 H   0  0  0  0  0  0  0  0  0  0  0  0
   39.8410    1.0011   13.5414 H   0  0  0  0  0  0  0  0  0  0  0  0
  1  2  1  0
  1  5  1  0
  2  3  2  0
  2  6  1  0
  3  4  1  0
  3 16  1  0
  4  5  2  0
  4 15  1  0
  5  9  1  0
  6  7  2  0
  6  8  1  0
  9 10  2  0
  9 14  1  0
 10 11  1  0
 10 31  1  0
 11 12  2  0
 11 21  1  0
 12 13  1  0
 12 32  1  0
 13 14  2  0
 13 33  1  0
 14 34  1  0
 16 17  1  0
 17 18  1  0
 17 35  1  0
 17 36  1  0
 18 19  1  0
 18 20  2  0
 21 22  1  0
 21 37  1  0
 22 23  1  0
 22 27  1  0
 22 38  1  0
 23 24  1  0
 23 39  1  0
 23 40  1  0
 24 25  1  0
 24 41  1  0
 24 42  1  0
 25 26  1  0
 25 28  1  0
 26 27  1  0
 26 43  1  0
 26 44  1  0
 27 45  1  0
 27 46  1  0
 28 29  2  0
 28 30  2  0
 28 50  1  0
 47 48  2  0
 47 52  1  0
 47 53  1  0
 48 49  1  0
 48 54  1  0
 49 50  2  0
 49 55  1  0
 50 51  1  0
 51 52  2  0
 51 56  1  0
 52 57  1  0
M  CHG  2   8  -1  19  -1
M  END
>  <r_exp_dg>  (19) 
-9.87

>  <AmberAM1BCCCache>  (19) 
gASVlgQAAAAAAABdlCiMFm51bXB5Ll9jb3JlLm11bHRpYXJyYXmUjAZzY2FsYXKUk5SMBW51bXB5lIwFZHR5cGWUk5SMAmY4lImIh5RSlChLA4wBPJROTk5K/////0r/////SwB0lGJDCOtFwWUijco/lIaUUpRoA2gJQwhIr62V0fL+v5SGlFKUaANoCUMIW50lnPA2+T+UhpRSlGgDaAlDCKAExccFAtu/lIaUUpRoA2gJQwjY86eKwjb8v5SGlFKUaANoCUMI9TwvlU8uJkCUhpRSlGgDaAlDCAY/hKuzVCPAlIaUUpRoA2gJQwgGP4Srs1QjwJSGlFKUaANoCUMI/Mv5vPg26D+UhpRSlGgDaAlDCMsTrHIhBv+/lIaUUpRoA2gJQwil1isbmt/rP5SGlFKUaANoCUMIikzcjMXC/L+UhpRSlGgDaAlDCCgGI5ELcfm/lIaUUpRoA2gJQwglV3y44UD4v5SGlFKUaANoCUMIuDrSeAo48b+UhpRSlGgDaAlDCLrXsZYwuQvAlIaUUpRoA2gJQwid7N41+Ly4P5SGlFKUaANoCUMIYrQ90ICAJUCUhpRSlGgDaAlDCNVFpE+dFCTAlIaUUpRoA2gJQwjVRaRPnRQkwJSGlFKUaANoCUMI2bX9jkyiIMCUhpRSlGgDaAlDCPivga6M6gFAlIaUUpRoA2gJQwg8GstrmI70v5SGlFKUaANoCUMIuOtR5eeoBUCUhpRSlGgDaAlDCKy4waLrEiPAlIaUUpRoA2gJQwi461Hl56gFQJSGlFKUaANoCUMIPBrLa5iO9L+UhpRSlGgDaAlDCAz9VGjKyDFAlIaUUpRoA2gJQwg2GVJo53MfwJSGlFKUaANoCUMINhlSaOdzH8CUhpRSlGgDaAlDCCLJ816cjfs/lIaUUpRoA2gJQwgMe1+ItX/2P5SGlFKUaANoCUMIrcn2g69n9T+UhpRSlGgDaAlDCJ5k9YFMevs/lIaUUpRoA2gJQwhj/xAoTB/kP5SGlFKUaANoCUMIY/8QKEwf5D+UhpRSlGgDaAlDCMuD/P/VaxFAlIaUUpRoA2gJQwj0uGt58cbeP5SGlFKUaANoCUMIDgpDhu3H5z+UhpRSlGgDaAlDCA4KQ4btx+c/lIaUUpRoA2gJQwh4tbTqx/HgP5SGlFKUaANoCUMIeLW06sfx4D+UhpRSlGgDaAlDCHi1tOrH8eA/lIaUUpRoA2gJQwh4tbTqx/HgP5SGlFKUaANoCUMIDgpDhu3H5z+UhpRSlGgDaAlDCA4KQ4btx+c/lIaUUpRoA2gJQwi3uzmIxGzlv5SGlFKUaANoCUMIUlv96oY2/r+UhpRSlGgDaAlDCKkLeRgVj9K/lIaUUpRoA2gJQwiXACiwQikTwJSGlFKUaANoCUMIqQt5GBWP0r+UhpRSlGgDaAlDCFJb/eqGNv6/lIaUUpRoA2gJQwhKZPicxNkAQJSGlFKUaANoCUMIzPomj+6n/T+UhpRSlGgDaAlDCGjexehZtPo/lIaUUpRoA2gJQwho3sXoWbT6P5SGlFKUaANoCUMIzPomj+6n/T+UhpRSlGUu

>  <experimental dG reference units>  (19) 
kcal/mol

>  <experimental dG reference field>  (19) 
r_exp_dg

>  <kJ/mol experimental dG>  (19) 
-41.296079999999996

>  <kcal/mol experimental dG>  (19) 
-9.87

$$$$
23475
     RDKit          3D

 42 44  0  0  1  0  0  0  0  0999 V2000
   43.4349   13.9762   16.5152 S   0  0  0  0  0  0  0  0  0  0  0  0
   43.2388   15.3847   15.4302 C   0  0  0  0  0  0  0  0  0  0  0  0
   42.3225   15.1290   14.5121 C   0  0  0  0  0  0  0  0  0  0  0  0
   41.7595   13.7729   14.6019 C   0  0  0  0  0  0  0  0  0  0  0  0
   42.1868   13.0208   15.6281 C   0  0  0  0  0  0  0  0  0  0  0  0
   43.9400   16.6164   15.7216 C   0  0  0  0  0  0  0  0  0  0  0  0
   44.3927   16.6325   16.8863 O   0  0  0  0  0  0  0  0  0  0  0  0
   44.0706   17.5599   14.9107 O   0  0  0  0  0  0  0  0  0  0  0  0
   41.8822   11.6386   16.0501 C   0  0  0  0  0  0  0  0  0  0  0  0
   40.5678   11.0458   15.8591 C   0  0  0  0  0  0  0  0  0  0  0  0
   40.3696    9.6768   16.2269 C   0  0  0  0  0  0  0  0  0  0  0  0
   41.4677    8.9015   16.8005 C   0  0  0  0  0  0  0  0  0  0  0  0
   42.7809    9.4864   17.0095 C   0  0  0  0  0  0  0  0  0  0  0  0
   42.9621   10.8634   16.6495 C   0  0  0  0  0  0  0  0  0  0  0  0
   40.5688   13.1540   13.2600 Br  0  0  0  0  0  0  0  0  0  0  0  0
   42.0383   16.0154   13.5689 O   0  0  0  0  0  0  0  0  0  0  0  0
   40.8225   16.7172   13.7275 C   0  0  0  0  0  0  0  0  0  0  0  0
   40.5922   17.4164   12.4629 C   0  0  0  0  0  0  0  0  0  0  0  0
   39.4465   17.8760   12.3022 O   0  0  0  0  0  0  0  0  0  0  0  0
   41.5197   17.5214   11.6281 O   0  0  0  0  0  0  0  0  0  0  0  0
   39.1083    9.2240   15.9963 N   0  0  0  0  0  0  0  0  0  0  0  0
   39.7918   11.6497   15.4445 H   0  0  0  0  0  0  0  0  0  0  0  0
   41.3089    7.8703   17.0755 H   0  0  0  0  0  0  0  0  0  0  0  0
   43.5906    8.9079   17.4295 H   0  0  0  0  0  0  0  0  0  0  0  0
   43.9418   11.2996   16.7828 H   0  0  0  0  0  0  0  0  0  0  0  0
   40.9172   17.4455   14.5356 H   0  0  0  0  0  0  0  0  0  0  0  0
   39.9903   16.0541   13.9762 H   0  0  0  0  0  0  0  0  0  0  0  0
   38.5630    9.8809   15.4374 H   0  0  0  0  0  0  0  0  0  0  0  0
   39.3786    7.1362   16.3176 H   0  0  0  0  0  0  0  0  0  0  0  0
   38.8992    7.8318   15.6241 C   0  0  0  0  0  0  0  0  0  0  0  0
   37.4108    7.4902   15.5470 C   0  0  0  0  0  0  0  0  0  0  0  0
   37.3382    6.2371   14.6612 C   0  0  0  0  0  0  0  0  0  0  0  0
   38.6065    6.2600   13.7902 C   0  0  0  0  0  0  0  0  0  0  0  0
   39.3788    7.5209   14.2034 C   0  0  0  0  0  0  0  0  0  0  0  0
   36.8549    8.3006   15.0690 H   0  0  0  0  0  0  0  0  0  0  0  0
   36.9687    7.3305   16.5312 H   0  0  0  0  0  0  0  0  0  0  0  0
   37.3282    5.3379   15.2797 H   0  0  0  0  0  0  0  0  0  0  0  0
   36.4264    6.2256   14.0618 H   0  0  0  0  0  0  0  0  0  0  0  0
   39.2105    5.3714   13.9836 H   0  0  0  0  0  0  0  0  0  0  0  0
   38.3768    6.2657   12.7236 H   0  0  0  0  0  0  0  0  0  0  0  0
   39.1260    8.3405   13.5271 H   0  0  0  0  0  0  0  0  0  0  0  0
   40.4594    7.3795   14.1537 H   0  0  0  0  0  0  0  0  0  0  0  0
  1  2  1  0
  1  5  1  0
  2  3  2  0
  2  6  1  0
  3  4  1  0
  3 16  1  0
  4  5  2  0
  4 15  1  0
  5  9  1  0
  6  7  2  0
  6  8  1  0
  9 10  2  0
  9 14  1  0
 10 11  1  0
 10 22  1  0
 11 12  2  0
 11 21  1  0
 12 13  1  0
 12 23  1  0
 13 14  2  0
 13 24  1  0
 14 25  1  0
 16 17  1  0
 17 18  1  0
 17 26  1  0
 17 27  1  0
 18 19  1  0
 18 20  2  0
 21 28  1  0
 21 30  1  0
 29 30  1  0
 30 31  1  0
 30 34  1  0
 31 32  1  0
 31 35  1  0
 31 36  1  0
 32 33  1  0
 32 37  1  0
 32 38  1  0
 33 34  1  0
 33 39  1  0
 33 40  1  0
 34 41  1  0
 34 42  1  0
M  CHG  2   8  -1  19  -1
M  END
>  <r_exp_dg>  (20) 
-8.72

>  <AmberAM1BCCCache>  (20) 
gASVeQMAAAAAAABdlCiMFm51bXB5Ll9jb3JlLm11bHRpYXJyYXmUjAZzY2FsYXKUk5SMBW51bXB5lIwFZHR5cGWUk5SMAmY4lImIh5RSlChLA4wBPJROTk5K/////0r/////SwB0lGJDCMtRAmejfto/lIaUUpRoA2gJQwiYXxq7UXYAwJSGlFKUaANoCUMIrqgeTMU8+j+UhpRSlGgDaAlDCObKZ+Td3uG/lIaUUpRoA2gJQwjHr37ASXT9v5SGlFKUaANoCUMIXu/Z+DAkJkCUhpRSlGgDaAlDCPUHH6gETSPAlIaUUpRoA2gJQwj1Bx+oBE0jwJSGlFKUaANoCUMI0BoZEjMl7j+UhpRSlGgDaAlDCPLAYUrnz/6/lIaUUpRoA2gJQwjOMRM2p8T0P5SGlFKUaANoCUMIbryGVrfiAsCUhpRSlGgDaAlDCHWaGgQHI/a/lIaUUpRoA2gJQwiaofK5IAX+v5SGlFKUaANoCUMIuABGtZoZ9L+UhpRSlGgDaAlDCB66Vl1gJQvAlIaUUpRoA2gJQwhC/UQjKxOzP5SGlFKUaANoCUMI8cgk5dWhJUCUhpRSlGgDaAlDCAhukn55FCTAlIaUUpRoA2gJQwgIbpJ+eRQkwJSGlFKUaANoCUMI0c4REee6IMCUhpRSlGgDaAlDCAZ3NLW1N/w/lIaUUpRoA2gJQwj8JUlbWj31P5SGlFKUaANoCUMIqc/WhDOZ9D+UhpRSlGgDaAlDCBcG16WAmPo/lIaUUpRoA2gJQwj0QmnHTGDkP5SGlFKUaANoCUMI9EJpx0xg5D+UhpRSlGgDaAlDCIfhC0QEoBFAlIaUUpRoA2gJQwjofMOQISbmP5SGlFKUaANoCUMIizvjcx0xAkCUhpRSlGgDaAlDCPS6IRF5zPK/lIaUUpRoA2gJQwjAbmts2Lbtv5SGlFKUaANoCUMIwG5rbNi27b+UhpRSlGgDaAlDCPS6IRF5zPK/lIaUUpRoA2gJQwiL5bBtkQTkP5SGlFKUaANoCUMIi+WwbZEE5D+UhpRSlGgDaAlDCGmgmWKdZtk/lIaUUpRoA2gJQwhpoJlinWbZP5SGlFKUaANoCUMIaaCZYp1m2T+UhpRSlGgDaAlDCGmgmWKdZtk/lIaUUpRoA2gJQwiL5bBtkQTkP5SGlFKUaANoCUMIi+WwbZEE5D+UhpRSlGUu

>  <experimental dG reference units>  (20) 
kcal/mol

>  <experimental dG reference field>  (20) 
r_exp_dg

>  <kJ/mol experimental dG>  (20) 
-36.484480000000005

>  <kcal/mol experimental dG>  (20) 
-8.72

$$$$
23479
     RDKit          3D

 49 51  0  0  1  0  0  0  0  0999 V2000
   43.4349   13.9762   16.5152 S   0  0  0  0  0  0  0  0  0  0  0  0
   43.2388   15.3847   15.4302 C   0  0  0  0  0  0  0  0  0  0  0  0
   42.3225   15.1290   14.5121 C   0  0  0  0  0  0  0  0  0  0  0  0
   41.7595   13.7729   14.6019 C   0  0  0  0  0  0  0  0  0  0  0  0
   42.1868   13.0208   15.6281 C   0  0  0  0  0  0  0  0  0  0  0  0
   43.9400   16.6164   15.7216 C   0  0  0  0  0  0  0  0  0  0  0  0
   44.3927   16.6325   16.8863 O   0  0  0  0  0  0  0  0  0  0  0  0
   44.0706   17.5599   14.9107 O   0  0  0  0  0  0  0  0  0  0  0  0
   41.8822   11.6386   16.0501 C   0  0  0  0  0  0  0  0  0  0  0  0
   40.5678   11.0458   15.8591 C   0  0  0  0  0  0  0  0  0  0  0  0
   40.3696    9.6768   16.2269 C   0  0  0  0  0  0  0  0  0  0  0  0
   41.4677    8.9015   16.8005 C   0  0  0  0  0  0  0  0  0  0  0  0
   42.7809    9.4864   17.0095 C   0  0  0  0  0  0  0  0  0  0  0  0
   42.9621   10.8634   16.6495 C   0  0  0  0  0  0  0  0  0  0  0  0
   40.5687   13.1534   13.2602 Br  0  0  0  0  0  0  0  0  0  0  0  0
   42.0383   16.0154   13.5689 O   0  0  0  0  0  0  0  0  0  0  0  0
   40.8225   16.7172   13.7275 C   0  0  0  0  0  0  0  0  0  0  0  0
   40.5922   17.4164   12.4629 C   0  0  0  0  0  0  0  0  0  0  0  0
   39.4465   17.8760   12.3022 O   0  0  0  0  0  0  0  0  0  0  0  0
   41.5197   17.5214   11.6281 O   0  0  0  0  0  0  0  0  0  0  0  0
   39.1083    9.2240   15.9963 N   0  0  0  0  0  0  0  0  0  0  0  0
   38.8278    7.8651   15.6453 C   0  0  0  0  0  0  0  0  0  0  0  0
   37.3098    7.7080   15.5483 C   0  0  0  0  0  0  0  0  0  0  0  0
   36.8797    6.3606   15.0162 C   0  0  0  0  0  0  0  0  0  0  0  0
   37.6451    6.1119   13.7935 N   0  0  0  0  0  0  0  0  0  0  0  0
   39.1091    6.1658   13.7891 C   0  0  0  0  0  0  0  0  0  0  0  0
   39.5301    7.5042   14.3382 C   0  0  0  0  0  0  0  0  0  0  0  0
   39.7921   11.6504   15.4452 H   0  0  0  0  0  0  0  0  0  0  0  0
   41.3043    7.8695   17.0711 H   0  0  0  0  0  0  0  0  0  0  0  0
   43.5917    8.9077   17.4273 H   0  0  0  0  0  0  0  0  0  0  0  0
   43.9423   11.2988   16.7816 H   0  0  0  0  0  0  0  0  0  0  0  0
   40.9171   17.4455   14.5357 H   0  0  0  0  0  0  0  0  0  0  0  0
   39.9903   16.0540   13.9761 H   0  0  0  0  0  0  0  0  0  0  0  0
   38.5797    9.8922   15.4353 H   0  0  0  0  0  0  0  0  0  0  0  0
   39.2005    7.2100   16.4367 H   0  0  0  0  0  0  0  0  0  0  0  0
   36.8980    8.4783   14.8915 H   0  0  0  0  0  0  0  0  0  0  0  0
   36.8527    7.8705   16.5253 H   0  0  0  0  0  0  0  0  0  0  0  0
   35.7957    6.3519   14.9047 H   0  0  0  0  0  0  0  0  0  0  0  0
   37.1248    5.5779   15.7365 H   0  0  0  0  0  0  0  0  0  0  0  0
   39.5543    6.0203   12.8018 H   0  0  0  0  0  0  0  0  0  0  0  0
   39.4883    5.3630   14.4239 H   0  0  0  0  0  0  0  0  0  0  0  0
   40.6124    7.5034   14.4704 H   0  0  0  0  0  0  0  0  0  0  0  0
   39.3174    8.2647   13.5841 H   0  0  0  0  0  0  0  0  0  0  0  0
   37.0119    5.6157   12.6914 C   0  0  0  0  0  0  0  0  0  0  0  0
   37.6139    5.1940   11.7024 O   0  0  0  0  0  0  0  0  0  0  0  0
   35.4823    5.5544   12.6332 C   0  0  0  0  0  0  0  0  0  0  0  0
   35.0921    4.8650   13.3818 H   0  0  0  0  0  0  0  0  0  0  0  0
   35.0484    6.5415   12.7934 H   0  0  0  0  0  0  0  0  0  0  0  0
   35.1508    5.1959   11.6594 H   0  0  0  0  0  0  0  0  0  0  0  0
  1  2  1  0
  1  5  1  0
  2  3  2  0
  2  6  1  0
  3  4  1  0
  3 16  1  0
  4  5  2  0
  4 15  1  0
  5  9  1  0
  6  7  2  0
  6  8  1  0
  9 10  2  0
  9 14  1  0
 10 11  1  0
 10 28  1  0
 11 12  2  0
 11 21  1  0
 12 13  1  0
 12 29  1  0
 13 14  2  0
 13 30  1  0
 14 31  1  0
 16 17  1  0
 17 18  1  0
 17 32  1  0
 17 33  1  0
 18 19  1  0
 18 20  2  0
 21 22  1  0
 21 34  1  0
 22 23  1  0
 22 27  1  0
 22 35  1  0
 23 24  1  0
 23 36  1  0
 23 37  1  0
 24 25  1  0
 24 38  1  0
 24 39  1  0
 25 26  1  0
 25 44  1  0
 26 27  1  0
 26 40  1  0
 26 41  1  0
 27 42  1  0
 27 43  1  0
 44 45  2  0
 44 46  1  0
 46 47  1  0
 46 48  1  0
 46 49  1  0
M  CHG  2   8  -1  19  -1
M  END
>  <r_exp_dg>  (21) 
-9.14

>  <AmberAM1BCCCache>  (21) 
gASV/gMAAAAAAABdlCiMFm51bXB5Ll9jb3JlLm11bHRpYXJyYXmUjAZzY2FsYXKUk5SMBW51bXB5lIwFZHR5cGWUk5SMAmY4lImIh5RSlChLA4wBPJROTk5K/////0r/////SwB0lGJDCM+uixlV9NI/lIaUUpRoA2gJQwhBsO6GWgUAwJSGlFKUaANoCUMI77ZoSzM++j+UhpRSlGgDaAlDCBfAe/kiwt+/lIaUUpRoA2gJQwgJ+Yet8Ar+v5SGlFKUaANoCUMIJzHDuF4kJkCUhpRSlGgDaAlDCGFISaO6RiPAlIaUUpRoA2gJQwhhSEmjukYjwJSGlFKUaANoCUMI2Ff9tsPm7j+UhpRSlGgDaAlDCF/Ag2rf6ADAlIaUUpRoA2gJQwjPkuMwL3nxP5SGlFKUaANoCUMIiXxooxkQAcCUhpRSlGgDaAlDCFILuhr3L/e/lIaUUpRoA2gJQwgsU3oLSm35v5SGlFKUaANoCUMInJDl42Pk8r+UhpRSlGgDaAlDCFy1c4mFDAvAlIaUUpRoA2gJQwj7vh8E0HKwP5SGlFKUaANoCUMIuQoOpQOiJUCUhpRSlGgDaAlDCNWsmclCDiTAlIaUUpRoA2gJQwjVrJnJQg4kwJSGlFKUaANoCUMI2hzzCPKbIMCUhpRSlGgDaAlDCIlcS+V0rAFAlIaUUpRoA2gJQwhzQlDQLIX2v5SGlFKUaANoCUMI+lNyoMxn8D+UhpRSlGgDaAlDCH5E9X7czxXAlIaUUpRoA2gJQwj6U3KgzGfwP5SGlFKUaANoCUMIc0JQ0CyF9r+UhpRSlGgDaAlDCDaQjVgtxPo/lIaUUpRoA2gJQwh6nRWP0CH1P5SGlFKUaANoCUMIv5iRNxhS9T+UhpRSlGgDaAlDCBDl+Dm7fPw/lIaUUpRoA2gJQwiwyH/6MEbkP5SGlFKUaANoCUMIsMh/+jBG5D+UhpRSlGgDaAlDCOhj/a1xrBFAlIaUUpRoA2gJQwgJfT+Cq0rnP5SGlFKUaANoCUMIDJeVYyFB5j+UhpRSlGgDaAlDCAyXlWMhQeY/lIaUUpRoA2gJQwiPUZeequvjP5SGlFKUaANoCUMIj1GXnqrr4z+UhpRSlGgDaAlDCI9Rl56q6+M/lIaUUpRoA2gJQwiPUZeequvjP5SGlFKUaANoCUMIDJeVYyFB5j+UhpRSlGgDaAlDCAyXlWMhQeY/lIaUUpRoA2gJQwg7Da1UktQeQJSGlFKUaANoCUMIRkEKT0IWHcCUhpRSlGgDaAlDCBljXoD5CADAlIaUUpRoA2gJQwiV2JVotKnmP5SGlFKUaANoCUMIldiVaLSp5j+UhpRSlGgDaAlDCJXYlWi0qeY/lIaUUpRlLg==

>  <experimental dG reference units>  (21) 
kcal/mol

>  <experimental dG reference field>  (21) 
r_exp_dg

>  <kJ/mol experimental dG>  (21) 
-38.241760000000006

>  <kcal/mol experimental dG>  (21) 
-9.14

$$$$
23485
     RDKit          3D

 63 66  0  0  1  0  0  0  0  0999 V2000
   43.4349   13.9762   16.5152 S   0  0  0  0  0  0  0  0  0  0  0  0
   43.2388   15.3847   15.4302 C   0  0  0  0  0  0  0  0  0  0  0  0
   42.3225   15.1290   14.5121 C   0  0  0  0  0  0  0  0  0  0  0  0
   41.7595   13.7729   14.6019 C   0  0  0  0  0  0  0  0  0  0  0  0
   42.1868   13.0208   15.6281 C   0  0  0  0  0  0  0  0  0  0  0  0
   43.9400   16.6164   15.7216 C   0  0  0  0  0  0  0  0  0  0  0  0
   44.3927   16.6325   16.8863 O   0  0  0  0  0  0  0  0  0  0  0  0
   44.0706   17.5599   14.9107 O   0  0  0  0  0  0  0  0  0  0  0  0
   41.8822   11.6386   16.0501 C   0  0  0  0  0  0  0  0  0  0  0  0
   40.5678   11.0458   15.8591 C   0  0  0  0  0  0  0  0  0  0  0  0
   40.3696    9.6768   16.2269 C   0  0  0  0  0  0  0  0  0  0  0  0
   41.4677    8.9015   16.8005 C   0  0  0  0  0  0  0  0  0  0  0  0
   42.7809    9.4864   17.0095 C   0  0  0  0  0  0  0  0  0  0  0  0
   42.9621   10.8634   16.6495 C   0  0  0  0  0  0  0  0  0  0  0  0
   40.7934   13.2699   13.5133 C   0  0  0  0  0  0  0  0  0  0  0  0
   42.0383   16.0154   13.5689 O   0  0  0  0  0  0  0  0  0  0  0  0
   40.8225   16.7172   13.7275 C   0  0  0  0  0  0  0  0  0  0  0  0
   40.5922   17.4164   12.4629 C   0  0  0  0  0  0  0  0  0  0  0  0
   39.4465   17.8760   12.3022 O   0  0  0  0  0  0  0  0  0  0  0  0
   41.5197   17.5214   11.6281 O   0  0  0  0  0  0  0  0  0  0  0  0
   39.1083    9.2240   15.9963 N   0  0  0  0  0  0  0  0  0  0  0  0
   38.8278    7.8651   15.6453 C   0  0  0  0  0  0  0  0  0  0  0  0
   37.3098    7.7080   15.5483 C   0  0  0  0  0  0  0  0  0  0  0  0
   36.8797    6.3606   15.0162 C   0  0  0  0  0  0  0  0  0  0  0  0
   37.6451    6.1119   13.7935 N   0  0  0  0  0  0  0  0  0  0  0  0
   39.1091    6.1658   13.7891 C   0  0  0  0  0  0  0  0  0  0  0  0
   39.5301    7.5042   14.3382 C   0  0  0  0  0  0  0  0  0  0  0  0
   36.8271    5.0850   12.5942 S   0  0  0  0  0  0  0  0  0  0  0  0
   37.6608    5.0112   11.3942 O   0  0  0  0  0  0  0  0  0  0  0  0
   35.4374    5.5435   12.4708 O   0  0  0  0  0  0  0  0  0  0  0  0
   36.8129    3.3913   13.4008 C   0  0  0  0  0  0  0  0  0  0  0  0
   36.1892    2.3341   12.5054 C   0  0  0  0  0  0  0  0  0  0  0  0
   36.9940    1.6134   11.6207 C   0  0  0  0  0  0  0  0  0  0  0  0
   36.4211    0.6593   10.7847 C   0  0  0  0  0  0  0  0  0  0  0  0
   35.0484    0.4272   10.8390 C   0  0  0  0  0  0  0  0  0  0  0  0
   34.2435    1.1375   11.7264 C   0  0  0  0  0  0  0  0  0  0  0  0
   34.8141    2.0942   12.5620 C   0  0  0  0  0  0  0  0  0  0  0  0
   39.7924   11.6509   15.4452 H   0  0  0  0  0  0  0  0  0  0  0  0
   41.3036    7.8697   17.0715 H   0  0  0  0  0  0  0  0  0  0  0  0
   43.5907    8.9077   17.4289 H   0  0  0  0  0  0  0  0  0  0  0  0
   43.9418   11.2995   16.7826 H   0  0  0  0  0  0  0  0  0  0  0  0
   40.9172   17.4454   14.5358 H   0  0  0  0  0  0  0  0  0  0  0  0
   39.9904   16.0539   13.9762 H   0  0  0  0  0  0  0  0  0  0  0  0
   38.5796    9.8940   15.4374 H   0  0  0  0  0  0  0  0  0  0  0  0
   39.2004    7.2119   16.4377 H   0  0  0  0  0  0  0  0  0  0  0  0
   36.9011    8.4789   14.8900 H   0  0  0  0  0  0  0  0  0  0  0  0
   36.8511    7.8747   16.5239 H   0  0  0  0  0  0  0  0  0  0  0  0
   35.8098    6.3485   14.8015 H   0  0  0  0  0  0  0  0  0  0  0  0
   37.0818    5.5514   15.7200 H   0  0  0  0  0  0  0  0  0  0  0  0
   39.4818    6.0238   12.7732 H   0  0  0  0  0  0  0  0  0  0  0  0
   39.4868    5.3356   14.3884 H   0  0  0  0  0  0  0  0  0  0  0  0
   40.6127    7.5066   14.4696 H   0  0  0  0  0  0  0  0  0  0  0  0
   39.3160    8.2672   13.5868 H   0  0  0  0  0  0  0  0  0  0  0  0
   36.2709    3.4979   14.3368 H   0  0  0  0  0  0  0  0  0  0  0  0
   37.8484    3.1587   13.6377 H   0  0  0  0  0  0  0  0  0  0  0  0
   38.0586    1.7971   11.5663 H   0  0  0  0  0  0  0  0  0  0  0  0
   37.0396    0.1073   10.0898 H   0  0  0  0  0  0  0  0  0  0  0  0
   34.6014   -0.3027   10.1781 H   0  0  0  0  0  0  0  0  0  0  0  0
   33.1775    0.9575   11.7549 H   0  0  0  0  0  0  0  0  0  0  0  0
   34.1817    2.6553   13.2365 H   0  0  0  0  0  0  0  0  0  0  0  0
   40.4818   12.2516   13.7456 H   0  0  0  0  0  0  0  0  0  0  0  0
   39.9176   13.9178   13.4765 H   0  0  0  0  0  0  0  0  0  0  0  0
   41.2959   13.2839   12.5461 H   0  0  0  0  0  0  0  0  0  0  0  0
  1  2  1  0
  1  5  1  0
  2  3  2  0
  2  6  1  0
  3  4  1  0
  3 16  1  0
  4  5  2  0
  4 15  1  0
  5  9  1  0
  6  7  2  0
  6  8  1  0
  9 10  2  0
  9 14  1  0
 10 11  1  0
 10 38  1  0
 11 12  2  0
 11 21  1  0
 12 13  1  0
 12 39  1  0
 13 14  2  0
 13 40  1  0
 14 41  1  0
 15 61  1  0
 15 62  1  0
 15 63  1  0
 16 17  1  0
 17 18  1  0
 17 42  1  0
 17 43  1  0
 18 19  1  0
 18 20  2  0
 21 22  1  0
 21 44  1  0
 22 23  1  0
 22 27  1  0
 22 45  1  0
 23 24  1  0
 23 46  1  0
 23 47  1  0
 24 25  1  0
 24 48  1  0
 24 49  1  0
 25 26  1  0
 25 28  1  0
 26 27  1  0
 26 50  1  0
 26 51  1  0
 27 52  1  0
 27 53  1  0
 28 29  2  0
 28 30  2  0
 28 31  1  0
 31 32  1  0
 31 54  1  0
 31 55  1  0
 32 33  2  0
 32 37  1  0
 33 34  1  0
 33 56  1  0
 34 35  2  0
 34 57  1  0
 35 36  1  0
 35 58  1  0
 36 37  2  0
 36 59  1  0
 37 60  1  0
M  CHG  2   8  -1  19  -1
M  END
>  <r_exp_dg>  (22) 
-11.01

>  <AmberAM1BCCCache>  (22) 
gASVCAUAAAAAAABdlCiMFm51bXB5Ll9jb3JlLm11bHRpYXJyYXmUjAZzY2FsYXKUk5SMBW51bXB5lIwFZHR5cGWUk5SMAmY4lImIh5RSlChLA4wBPJROTk5K/////0r/////SwB0lGJDCH7d9FNeofC/lIaUUpRoA2gJQwhtcK95Xfvnv5SGlFKUaANoCUMI35weDbpp5D+UhpRSlGgDaAlDCNetlBXraNW/lIaUUpRoA2gJQwjTRDQHDx0AwJSGlFKUaANoCUMI/OqMRQEpJkCUhpRSlGgDaAlDCPT7sJgEbSPAlIaUUpRoA2gJQwj0+7CYBG0jwJSGlFKUaANoCUMIp3lapHWx8j+UhpRSlGgDaAlDCHugv4yGlQLAlIaUUpRoA2gJQwhIa8aoL4/uP5SGlFKUaANoCUMIfLoVbvyLAcCUhpRSlGgDaAlDCJARM0nPuPa/lIaUUpRoA2gJQwg8ywuAmpH7v5SGlFKUaANoCUMIYT9aOub667+UhpRSlGgDaAlDCHgEBN4F5AzAlIaUUpRoA2gJQwjF+KhGI2nPP5SGlFKUaANoCUMIC/4vE7jjJECUhpRSlGgDaAlDCLbHA2K3OyTAlIaUUpRoA2gJQwi2xwNitzskwJSGlFKUaANoCUMIkmbMvRlzIMCUhpRSlGgDaAlDCApo+G9T1QFAlIaUUpRoA2gJQwi+cBh3zvf0v5SGlFKUaANoCUMIC+PyhZEYBUCUhpRSlGgDaAlDCOqrNxO7TCPAlIaUUpRoA2gJQwgL4/KFkRgFQJSGlFKUaANoCUMIvnAYd8739L+UhpRSlGgDaAlDCOJbTT6E8zBAlIaUUpRoA2gJQwj1NmdukbgewJSGlFKUaANoCUMI9TZnbpG4HsCUhpRSlGgDaAlDCChN7dIW8wfAlIaUUpRoA2gJQwiUV/EUk+Pkv5SGlFKUaANoCUMIOvLDuAju9b+UhpRSlGgDaAlDCMZ9DAFMiPi/lIaUUpRoA2gJQwgSQoVjM9/4v5SGlFKUaANoCUMIxn0MAUyI+L+UhpRSlGgDaAlDCDryw7gI7vW/lIaUUpRoA2gJQwjXLIKvRNf5P5SGlFKUaANoCUMISwzpb00D9T+UhpRSlGgDaAlDCPebILiwaPU/lIaUUpRoA2gJQwiOkqo7xfP9P5SGlFKUaANoCUMIFqTFmKJq3D+UhpRSlGgDaAlDCBakxZiiatw/lIaUUpRoA2gJQwj7LEhnml0RQJSGlFKUaANoCUMI3pweDbpp5D+UhpRSlGgDaAlDCBi4np1gaec/lIaUUpRoA2gJQwgYuJ6dYGnnP5SGlFKUaANoCUMI48Mf32rb4j+UhpRSlGgDaAlDCOPDH99q2+I/lIaUUpRoA2gJQwjjwx/fatviP5SGlFKUaANoCUMI48Mf32rb4j+UhpRSlGgDaAlDCBi4np1gaec/lIaUUpRoA2gJQwgYuJ6dYGnnP5SGlFKUaANoCUMI9ZsguLBo9T+UhpRSlGgDaAlDCPWbILiwaPU/lIaUUpRoA2gJQwgKmVtnwab7P5SGlFKUaANoCUMIG4YCcJ1S+D+UhpRSlGgDaAlDCFFqNiGhY/c/lIaUUpRoA2gJQwgbhgJwnVL4P5SGlFKUaANoCUMICplbZ8Gm+z+UhpRSlGgDaAlDCCwi5gWWxug/lIaUUpRoA2gJQwgsIuYFlsboP5SGlFKUaANoCUMILCLmBZbG6D+UhpRSlGUu

>  <experimental dG reference units>  (22) 
kcal/mol

>  <experimental dG reference field>  (22) 
r_exp_dg

>  <kJ/mol experimental dG>  (22) 
-46.06584

>  <kcal/mol experimental dG>  (22) 
-11.01

$$$$
23486
     RDKit          3D

 60 63  0  0  1  0  0  0  0  0999 V2000
   43.4349   13.9762   16.5152 S   0  0  0  0  0  0  0  0  0  0  0  0
   43.2388   15.3847   15.4302 C   0  0  0  0  0  0  0  0  0  0  0  0
   42.3225   15.1290   14.5121 C   0  0  0  0  0  0  0  0  0  0  0  0
   41.7595   13.7729   14.6019 C   0  0  0  0  0  0  0  0  0  0  0  0
   42.1868   13.0208   15.6281 C   0  0  0  0  0  0  0  0  0  0  0  0
   43.9400   16.6164   15.7216 C   0  0  0  0  0  0  0  0  0  0  0  0
   44.3927   16.6325   16.8863 O   0  0  0  0  0  0  0  0  0  0  0  0
   44.0706   17.5599   14.9107 O   0  0  0  0  0  0  0  0  0  0  0  0
   41.8822   11.6386   16.0501 C   0  0  0  0  0  0  0  0  0  0  0  0
   40.5678   11.0458   15.8591 C   0  0  0  0  0  0  0  0  0  0  0  0
   40.3696    9.6768   16.2269 C   0  0  0  0  0  0  0  0  0  0  0  0
   41.4677    8.9015   16.8005 C   0  0  0  0  0  0  0  0  0  0  0  0
   42.7809    9.4864   17.0095 C   0  0  0  0  0  0  0  0  0  0  0  0
   42.9621   10.8634   16.6495 C   0  0  0  0  0  0  0  0  0  0  0  0
   40.6742   13.2079   13.3790 Cl  0  0  0  0  0  0  0  0  0  0  0  0
   42.0383   16.0154   13.5689 O   0  0  0  0  0  0  0  0  0  0  0  0
   40.8225   16.7172   13.7275 C   0  0  0  0  0  0  0  0  0  0  0  0
   40.5922   17.4164   12.4629 C   0  0  0  0  0  0  0  0  0  0  0  0
   39.4465   17.8760   12.3022 O   0  0  0  0  0  0  0  0  0  0  0  0
   41.5197   17.5214   11.6281 O   0  0  0  0  0  0  0  0  0  0  0  0
   39.1083    9.2240   15.9963 N   0  0  0  0  0  0  0  0  0  0  0  0
   38.8278    7.8651   15.6453 C   0  0  0  0  0  0  0  0  0  0  0  0
   37.3098    7.7080   15.5483 C   0  0  0  0  0  0  0  0  0  0  0  0
   36.8797    6.3606   15.0162 C   0  0  0  0  0  0  0  0  0  0  0  0
   37.6451    6.1119   13.7935 N   0  0  0  0  0  0  0  0  0  0  0  0
   39.1091    6.1658   13.7891 C   0  0  0  0  0  0  0  0  0  0  0  0
   39.5301    7.5042   14.3382 C   0  0  0  0  0  0  0  0  0  0  0  0
   36.8271    5.0850   12.5942 S   0  0  0  0  0  0  0  0  0  0  0  0
   37.6608    5.0112   11.3942 O   0  0  0  0  0  0  0  0  0  0  0  0
   35.4374    5.5435   12.4708 O   0  0  0  0  0  0  0  0  0  0  0  0
   36.8129    3.3913   13.4008 C   0  0  0  0  0  0  0  0  0  0  0  0
   36.1892    2.3341   12.5054 C   0  0  0  0  0  0  0  0  0  0  0  0
   36.9940    1.6134   11.6207 C   0  0  0  0  0  0  0  0  0  0  0  0
   36.4211    0.6593   10.7847 C   0  0  0  0  0  0  0  0  0  0  0  0
   35.0484    0.4272   10.8390 C   0  0  0  0  0  0  0  0  0  0  0  0
   34.2435    1.1375   11.7264 C   0  0  0  0  0  0  0  0  0  0  0  0
   34.8141    2.0942   12.5620 C   0  0  0  0  0  0  0  0  0  0  0  0
   39.7924   11.6509   15.4452 H   0  0  0  0  0  0  0  0  0  0  0  0
   41.3036    7.8697   17.0715 H   0  0  0  0  0  0  0  0  0  0  0  0
   43.5907    8.9077   17.4289 H   0  0  0  0  0  0  0  0  0  0  0  0
   43.9418   11.2995   16.7826 H   0  0  0  0  0  0  0  0  0  0  0  0
   40.9172   17.4454   14.5358 H   0  0  0  0  0  0  0  0  0  0  0  0
   39.9904   16.0539   13.9762 H   0  0  0  0  0  0  0  0  0  0  0  0
   38.5796    9.8940   15.4374 H   0  0  0  0  0  0  0  0  0  0  0  0
   39.2004    7.2119   16.4377 H   0  0  0  0  0  0  0  0  0  0  0  0
   36.9011    8.4789   14.8900 H   0  0  0  0  0  0  0  0  0  0  0  0
   36.8511    7.8747   16.5239 H   0  0  0  0  0  0  0  0  0  0  0  0
   35.8098    6.3485   14.8015 H   0  0  0  0  0  0  0  0  0  0  0  0
   37.0818    5.5514   15.7200 H   0  0  0  0  0  0  0  0  0  0  0  0
   39.4818    6.0238   12.7732 H   0  0  0  0  0  0  0  0  0  0  0  0
   39.4868    5.3356   14.3884 H   0  0  0  0  0  0  0  0  0  0  0  0
   40.6127    7.5066   14.4696 H   0  0  0  0  0  0  0  0  0  0  0  0
   39.3160    8.2672   13.5868 H   0  0  0  0  0  0  0  0  0  0  0  0
   36.2709    3.4979   14.3368 H   0  0  0  0  0  0  0  0  0  0  0  0
   37.8484    3.1587   13.6377 H   0  0  0  0  0  0  0  0  0  0  0  0
   38.0586    1.7971   11.5663 H   0  0  0  0  0  0  0  0  0  0  0  0
   37.0396    0.1073   10.0898 H   0  0  0  0  0  0  0  0  0  0  0  0
   34.6014   -0.3027   10.1781 H   0  0  0  0  0  0  0  0  0  0  0  0
   33.1775    0.9575   11.7549 H   0  0  0  0  0  0  0  0  0  0  0  0
   34.1817    2.6553   13.2365 H   0  0  0  0  0  0  0  0  0  0  0  0
  1  2  1  0
  1  5  1  0
  2  3  2  0
  2  6  1  0
  3  4  1  0
  3 16  1  0
  4  5  2  0
  4 15  1  0
  5  9  1  0
  6  7  2  0
  6  8  1  0
  9 10  2  0
  9 14  1  0
 10 11  1  0
 10 38  1  0
 11 12  2  0
 11 21  1  0
 12 13  1  0
 12 39  1  0
 13 14  2  0
 13 40  1  0
 14 41  1  0
 16 17  1  0
 17 18  1  0
 17 42  1  0
 17 43  1  0
 18 19  1  0
 18 20  2  0
 21 22  1  0
 21 44  1  0
 22 23  1  0
 22 27  1  0
 22 45  1  0
 23 24  1  0
 23 46  1  0
 23 47  1  0
 24 25  1  0
 24 48  1  0
 24 49  1  0
 25 26  1  0
 25 28  1  0
 26 27  1  0
 26 50  1  0
 26 51  1  0
 27 52  1  0
 27 53  1  0
 28 29  2  0
 28 30  2  0
 28 31  1  0
 31 32  1  0
 31 54  1  0
 31 55  1  0
 32 33  2  0
 32 37  1  0
 33 34  1  0
 33 56  1  0
 34 35  2  0
 34 57  1  0
 35 36  1  0
 35 58  1  0
 36 37  2  0
 36 59  1  0
 37 60  1  0
M  CHG  2   8  -1  19  -1
M  END
>  <r_exp_dg>  (23) 
-12.47

>  <AmberAM1BCCCache>  (23) 
gASVzwQAAAAAAABdlCiMFm51bXB5Ll9jb3JlLm11bHRpYXJyYXmUjAZzY2FsYXKUk5SMBW51bXB5lIwFZHR5cGWUk5SMAmY4lImIh5RSlChLA4wBPJROTk5K/////0r/////SwB0lGJDCGga2odzAMW/lIaUUpRoA2gJQwh1hL8ignL0v5SGlFKUaANoCUMInA9BIpuS8j+UhpRSlGgDaAlDCICOXCmLFtY/lIaUUpRoA2gJQwi3U1ZgbawAwJSGlFKUaANoCUMIcdd59/AjJkCUhpRSlGgDaAlDCApAO2zCSyPAlIaUUpRoA2gJQwgKQDtswksjwJSGlFKUaANoCUMIpAzqniam8D+UhpRSlGgDaAlDCJDkbr6+BQHAlIaUUpRoA2gJQwhbSHE8P0/wP5SGlFKUaANoCUMIgnzNn6QWAcCUhpRSlGgDaAlDCCg7QdbYXve/lIaUUpRoA2gJQwiA1ap83Wz7v5SGlFKUaANoCUMIMhgRllMI7L+UhpRSlGgDaAlDCNi70kpP2wzAlIaUUpRoA2gJQwgqTxTcs+HLP5SGlFKUaANoCUMIcAZ8g3lJJUCUhpRSlGgDaAlDCEnpD0cbNCTAlIaUUpRoA2gJQwhJ6Q9HGzQkwJSGlFKUaANoCUMIAgRFVryVIMCUhpRSlGgDaAlDCL+qxJVjGgJAlIaUUpRoA2gJQwjLsNmjg7j0v5SGlFKUaANoCUMIycRjEBwmBUCUhpRSlGgDaAlDCHBlotkEViPAlIaUUpRoA2gJQwjJxGMQHCYFQJSGlFKUaANoCUMIy7DZo4O49L+UhpRSlGgDaAlDCBce8wdv+TBAlIaUUpRoA2gJQwgCqjz7JMsewJSGlFKUaANoCUMIAqo8+yTLHsCUhpRSlGgDaAlDCCksUmmpYAjAlIaUUpRoA2gJQwhW1bFCIX3kv5SGlFKUaANoCUMIxcDbFzMg9r+UhpRSlGgDaAlDCIBNBXZkrvi/lIaUUpRoA2gJQwg/DtuWgSn5v5SGlFKUaANoCUMIgE0FdmSu+L+UhpRSlGgDaAlDCMXA2xczIPa/lIaUUpRoA2gJQwiXtzOqtTX8P5SGlFKUaANoCUMI6GgKfDYj9T+UhpRSlGgDaAlDCCXSjLA+BvU/lIaUUpRoA2gJQwgvI3gKmgD8P5SGlFKUaANoCUMIrWNY1BwU4j+UhpRSlGgDaAlDCK1jWNQcFOI/lIaUUpRoA2gJQwh7sGorlqsRQJSGlFKUaANoCUMI8kR+m+5N4z+UhpRSlGgDaAlDCKxm+PDTFeg/lIaUUpRoA2gJQwisZvjw0xXoP5SGlFKUaANoCUMIz+/s2rWd4j+UhpRSlGgDaAlDCM/v7Nq1neI/lIaUUpRoA2gJQwjP7+zatZ3iP5SGlFKUaANoCUMIz+/s2rWd4j+UhpRSlGgDaAlDCKxm+PDTFeg/lIaUUpRoA2gJQwisZvjw0xXoP5SGlFKUaANoCUMIRFF2xpwU9j+UhpRSlGgDaAlDCERRdsacFPY/lIaUUpRoA2gJQwg8ixkptO/7P5SGlFKUaANoCUMIvKsgNiaZ+D+UhpRSlGgDaAlDCGHQX9z6Ivc/lIaUUpRoA2gJQwi8qyA2Jpn4P5SGlFKUaANoCUMIPIsZKbTv+z+UhpRSlGUu

>  <experimental dG reference units>  (23) 
kcal/mol

>  <experimental dG reference field>  (23) 
r_exp_dg

>  <kJ/mol experimental dG>  (23) 
-52.17448

>  <kcal/mol experimental dG>  (23) 
-12.47

$$$$
