Pfizer-01-06
     RDKit          3D

 45 48  0  0  0  0  0  0  0  0999 V2000
  -10.4746  -24.7444   10.8270 C   0  0  0  0  0  0  0  0  0  0  0  0
  -12.1964  -23.4984   11.9479 C   0  0  0  0  0  0  0  0  0  0  0  0
  -11.3962  -25.7609   10.6516 C   0  0  0  0  0  0  0  0  0  0  0  0
   -8.9900  -19.1771   14.1609 C   0  0  0  0  0  0  0  0  0  0  0  0
   -8.1390  -18.2722   12.0780 C   0  0  0  0  0  0  0  0  0  0  0  0
   -7.9732  -17.0699   12.7919 C   0  0  0  0  0  0  0  0  0  0  0  0
  -10.8798  -23.5907   11.4984 C   0  0  0  0  0  0  0  0  0  0  0  0
   -8.7066  -19.3391   12.8041 C   0  0  0  0  0  0  0  0  0  0  0  0
  -13.0555  -24.5697   11.7145 C   0  0  0  0  0  0  0  0  0  0  0  0
   -8.2963  -17.0468   14.1416 C   0  0  0  0  0  0  0  0  0  0  0  0
   -7.5896  -15.0619   13.4595 C   0  0  0  0  0  0  0  0  0  0  0  0
  -10.0397  -21.4039   12.4114 C   0  0  0  0  0  0  0  0  0  0  0  0
   -6.6026  -19.0428   10.1339 C   0  0  0  0  0  0  0  0  0  0  0  0
   -6.7080  -17.5624    9.9545 C   0  0  0  0  0  0  0  0  0  0  0  0
   -7.8421  -18.3124   10.6034 C   0  0  0  0  0  0  0  0  0  0  0  0
   -7.2409  -13.6226   13.5021 C   0  0  0  0  0  0  0  0  0  0  0  0
   -8.1578  -15.2652   15.8991 C   0  0  0  0  0  0  0  0  0  0  0  0
  -14.4798  -24.4935   12.1697 C   0  0  0  0  0  0  0  0  0  0  0  0
  -12.6735  -25.7018   11.0792 N   0  0  0  0  0  0  0  0  0  0  0  0
   -8.7863  -18.0537   14.8821 N   0  0  0  0  0  0  0  0  0  0  0  0
   -7.5458  -15.8288   12.3878 N   0  0  0  0  0  0  0  0  0  0  0  0
   -8.0163  -15.7741   14.5567 N   0  0  0  0  0  0  0  0  0  0  0  0
   -9.9205  -22.5690   11.6493 N   0  0  0  0  0  0  0  0  0  0  0  0
   -8.9714  -20.5461   12.1266 N   0  0  0  0  0  0  0  0  0  0  0  0
  -10.9537  -21.1396   13.1885 O   0  0  0  0  0  0  0  0  0  0  0  0
  -14.5935  -24.3735   13.5204 F   0  0  0  0  0  0  0  0  0  0  0  0
  -15.1466  -23.4329   11.6377 F   0  0  0  0  0  0  0  0  0  0  0  0
  -15.2024  -25.5954   11.8301 F   0  0  0  0  0  0  0  0  0  0  0  0
   -9.4621  -24.8586   10.4534 H   0  0  0  0  0  0  0  0  0  0  0  0
  -12.5839  -22.6181   12.4463 H   0  0  0  0  0  0  0  0  0  0  0  0
  -11.1206  -26.6789   10.1443 H   0  0  0  0  0  0  0  0  0  0  0  0
   -9.3806  -19.9984   14.7563 H   0  0  0  0  0  0  0  0  0  0  0  0
   -6.6889  -19.6692    9.2548 H   0  0  0  0  0  0  0  0  0  0  0  0
   -5.8936  -19.4025   10.8705 H   0  0  0  0  0  0  0  0  0  0  0  0
   -6.0511  -16.9453   10.5523 H   0  0  0  0  0  0  0  0  0  0  0  0
   -6.8768  -17.1871    8.9517 H   0  0  0  0  0  0  0  0  0  0  0  0
   -8.7227  -18.4366    9.9741 H   0  0  0  0  0  0  0  0  0  0  0  0
   -8.0906  -13.0285   13.8517 H   0  0  0  0  0  0  0  0  0  0  0  0
   -6.3888  -13.4487   14.1654 H   0  0  0  0  0  0  0  0  0  0  0  0
   -6.9711  -13.2687   12.5021 H   0  0  0  0  0  0  0  0  0  0  0  0
   -7.2048  -14.8277   16.2067 H   0  0  0  0  0  0  0  0  0  0  0  0
   -8.9487  -14.5117   15.8997 H   0  0  0  0  0  0  0  0  0  0  0  0
   -8.4198  -16.0776   16.5811 H   0  0  0  0  0  0  0  0  0  0  0  0
   -9.0274  -22.7195   11.1868 H   0  0  0  0  0  0  0  0  0  0  0  0
   -8.4815  -20.7072   11.2518 H   0  0  0  0  0  0  0  0  0  0  0  0
  1  3  2  0
  1  7  1  0
  2  7  2  0
  2  9  1  0
  3 19  1  0
  4  8  2  0
  4 20  1  0
  5  6  2  0
  5  8  1  0
  5 15  1  0
  6 10  1  0
  6 21  1  0
  7 23  1  0
  8 24  1  0
  9 18  1  0
  9 19  2  0
 10 20  2  0
 10 22  1  0
 11 16  1  0
 11 21  2  0
 11 22  1  0
 12 23  1  0
 12 24  1  0
 12 25  2  0
 13 14  1  0
 13 15  1  0
 14 15  1  0
 17 22  1  0
 18 26  1  0
 18 27  1  0
 18 28  1  0
  1 29  1  0
  2 30  1  0
  3 31  1  0
  4 32  1  0
 13 33  1  0
 13 34  1  0
 14 35  1  0
 14 36  1  0
 15 37  1  0
 16 38  1  0
 16 39  1  0
 16 40  1  0
 17 41  1  0
 17 42  1  0
 17 43  1  0
 23 44  1  0
 24 45  1  0
M  END
>  <IC50 (nM)>  (1) 
14603.069

>  <IC50_operator>  (1) 
=

>  <Collaboration_Compound_ID>  (1) 
Pfizer-01-06

>  <experimental dG reference units>  (1) 
nM

>  <experimental dG reference field>  (1) 
IC50 (nM)

>  <kJ/mol experimental dG>  (1) 
-27.772825890261046

>  <kcal/mol experimental dG>  (1) 
-6.6378646965251065

$$$$
Pfizer-01-09
     RDKit          3D

 44 46  0  0  0  0  0  0  0  0999 V2000
  -10.5041  -24.7517   10.8873 C   0  0  0  0  0  0  0  0  0  0  0  0
  -12.2352  -23.4802   11.9660 C   0  0  0  0  0  0  0  0  0  0  0  0
  -11.4370  -25.7499   10.6770 C   0  0  0  0  0  0  0  0  0  0  0  0
   -7.7192  -15.8519   12.3848 C   0  0  0  0  0  0  0  0  0  0  0  0
  -10.9094  -23.5965   11.5561 C   0  0  0  0  0  0  0  0  0  0  0  0
  -13.1020  -24.5382   11.7082 C   0  0  0  0  0  0  0  0  0  0  0  0
   -7.6697  -15.0648   13.5098 C   0  0  0  0  0  0  0  0  0  0  0  0
   -8.3184  -16.9997   14.1788 C   0  0  0  0  0  0  0  0  0  0  0  0
   -8.9749  -19.1565   14.2294 C   0  0  0  0  0  0  0  0  0  0  0  0
   -8.7290  -19.3714   12.7759 C   0  0  0  0  0  0  0  0  0  0  0  0
   -8.2722  -18.3052   12.0833 C   0  0  0  0  0  0  0  0  0  0  0  0
  -10.0598  -21.4166   12.4788 C   0  0  0  0  0  0  0  0  0  0  0  0
   -7.3015  -13.6400   13.6081 C   0  0  0  0  0  0  0  0  0  0  0  0
   -9.1458  -17.6075    9.7938 C   0  0  0  0  0  0  0  0  0  0  0  0
   -6.6422  -18.0461   10.1065 C   0  0  0  0  0  0  0  0  0  0  0  0
   -8.0637  -18.3689   10.5660 C   0  0  0  0  0  0  0  0  0  0  0  0
  -14.5409  -24.4361   12.1046 C   0  0  0  0  0  0  0  0  0  0  0  0
  -12.7237  -25.6704   11.0701 N   0  0  0  0  0  0  0  0  0  0  0  0
   -8.0391  -15.7841   14.6122 N   0  0  0  0  0  0  0  0  0  0  0  0
   -8.7756  -18.0634   14.8961 N   0  0  0  0  0  0  0  0  0  0  0  0
   -8.0936  -17.1055   12.8021 N   0  0  0  0  0  0  0  0  0  0  0  0
   -9.9355  -22.5997   11.7469 N   0  0  0  0  0  0  0  0  0  0  0  0
   -8.9521  -20.6044   12.2251 N   0  0  0  0  0  0  0  0  0  0  0  0
  -11.0048  -21.0942   13.1934 O   0  0  0  0  0  0  0  0  0  0  0  0
  -14.7164  -23.9382   13.3590 F   0  0  0  0  0  0  0  0  0  0  0  0
  -15.2526  -23.6276   11.2735 F   0  0  0  0  0  0  0  0  0  0  0  0
  -15.1743  -25.6401   12.0911 F   0  0  0  0  0  0  0  0  0  0  0  0
   -9.4839  -24.8788   10.5394 H   0  0  0  0  0  0  0  0  0  0  0  0
  -12.6203  -22.5942   12.4556 H   0  0  0  0  0  0  0  0  0  0  0  0
  -11.1632  -26.6678   10.1692 H   0  0  0  0  0  0  0  0  0  0  0  0
   -7.5202  -15.6090   11.3528 H   0  0  0  0  0  0  0  0  0  0  0  0
   -9.3281  -20.0346   14.7941 H   0  0  0  0  0  0  0  0  0  0  0  0
   -7.9631  -13.0337   12.9817 H   0  0  0  0  0  0  0  0  0  0  0  0
   -7.3796  -13.2803   14.6384 H   0  0  0  0  0  0  0  0  0  0  0  0
   -6.2718  -13.4888   13.2692 H   0  0  0  0  0  0  0  0  0  0  0  0
   -9.1188  -16.5301    9.9651 H   0  0  0  0  0  0  0  0  0  0  0  0
  -10.1422  -17.9718   10.0739 H   0  0  0  0  0  0  0  0  0  0  0  0
   -9.0341  -17.7782    8.7169 H   0  0  0  0  0  0  0  0  0  0  0  0
   -6.2701  -17.0864   10.4646 H   0  0  0  0  0  0  0  0  0  0  0  0
   -6.5888  -18.0321    9.0128 H   0  0  0  0  0  0  0  0  0  0  0  0
   -5.9505  -18.8186   10.4610 H   0  0  0  0  0  0  0  0  0  0  0  0
   -8.2053  -19.3997   10.2247 H   0  0  0  0  0  0  0  0  0  0  0  0
   -9.0281  -22.7758   11.3228 H   0  0  0  0  0  0  0  0  0  0  0  0
   -8.3949  -20.8645   11.4186 H   0  0  0  0  0  0  0  0  0  0  0  0
  1  3  2  0
  1  5  1  0
  2  5  2  0
  2  6  1  0
  3 18  1  0
  4  7  2  0
  4 21  1  0
  5 22  1  0
  6 17  1  0
  6 18  2  0
  7 13  1  0
  7 19  1  0
  8 19  2  0
  8 20  1  0
  8 21  1  0
  9 10  1  0
  9 20  2  0
 10 11  2  0
 10 23  1  0
 11 16  1  0
 11 21  1  0
 12 22  1  0
 12 23  1  0
 12 24  2  0
 14 16  1  0
 15 16  1  0
 17 25  1  0
 17 26  1  0
 17 27  1  0
  1 28  1  0
  2 29  1  0
  3 30  1  0
  4 31  1  0
  9 32  1  0
 13 33  1  0
 13 34  1  0
 13 35  1  0
 14 36  1  0
 14 37  1  0
 14 38  1  0
 15 39  1  0
 15 40  1  0
 15 41  1  0
 16 42  1  0
 22 43  1  0
 23 44  1  0
M  END
>  <IC50 (nM)>  (2) 
20000.0

>  <IC50_operator>  (2) 
>

>  <Collaboration_Compound_ID>  (2) 
Pfizer-01-09

>  <experimental dG reference units>  (2) 
nM

>  <experimental dG reference field>  (2) 
IC50 (nM)

>  <kJ/mol experimental dG>  (2) 
-26.98835035695819

>  <kcal/mol experimental dG>  (2) 
-6.450370544206068

$$$$
Pfizer-01-04
     RDKit          3D

 38 40  0  0  0  0  0  0  0  0999 V2000
  -10.7709  -24.8051   10.8917 C   0  0  0  0  0  0  0  0  0  0  0  0
  -12.3478  -23.3761   12.0123 C   0  0  0  0  0  0  0  0  0  0  0  0
   -8.1397  -15.8330   14.6694 C   0  0  0  0  0  0  0  0  0  0  0  0
  -11.7950  -25.7260   10.7402 C   0  0  0  0  0  0  0  0  0  0  0  0
  -11.0608  -23.6103   11.5410 C   0  0  0  0  0  0  0  0  0  0  0  0
  -13.3014  -24.3609   11.8105 C   0  0  0  0  0  0  0  0  0  0  0  0
   -7.7387  -15.1813   13.4980 C   0  0  0  0  0  0  0  0  0  0  0  0
   -8.3938  -17.1292   14.2835 C   0  0  0  0  0  0  0  0  0  0  0  0
   -8.9577  -19.3098   14.3066 C   0  0  0  0  0  0  0  0  0  0  0  0
   -8.7127  -19.4899   12.8491 C   0  0  0  0  0  0  0  0  0  0  0  0
   -8.2987  -18.3938   12.1862 C   0  0  0  0  0  0  0  0  0  0  0  0
  -10.1596  -21.3904   12.3469 C   0  0  0  0  0  0  0  0  0  0  0  0
   -7.3482  -13.7692   13.3472 C   0  0  0  0  0  0  0  0  0  0  0  0
   -7.9928  -18.3461   10.7138 C   0  0  0  0  0  0  0  0  0  0  0  0
  -14.6929  -24.1439   12.3051 C   0  0  0  0  0  0  0  0  0  0  0  0
  -13.0573  -25.5340   11.1845 N   0  0  0  0  0  0  0  0  0  0  0  0
   -7.7308  -15.9838   12.4357 N   0  0  0  0  0  0  0  0  0  0  0  0
   -8.8131  -18.2155   14.9876 N   0  0  0  0  0  0  0  0  0  0  0  0
   -8.1364  -17.1956   12.9112 N   0  0  0  0  0  0  0  0  0  0  0  0
  -10.0499  -22.6378   11.7227 N   0  0  0  0  0  0  0  0  0  0  0  0
   -8.9246  -20.7255   12.3199 N   0  0  0  0  0  0  0  0  0  0  0  0
  -11.1734  -20.9156   12.8542 O   0  0  0  0  0  0  0  0  0  0  0  0
  -14.8699  -22.9418   12.9282 F   0  0  0  0  0  0  0  0  0  0  0  0
  -15.6343  -24.1757   11.3166 F   0  0  0  0  0  0  0  0  0  0  0  0
  -15.0800  -25.0876   13.2113 F   0  0  0  0  0  0  0  0  0  0  0  0
   -9.7777  -25.0198   10.5115 H   0  0  0  0  0  0  0  0  0  0  0  0
  -12.5976  -22.4511   12.5232 H   0  0  0  0  0  0  0  0  0  0  0  0
   -8.2360  -15.4266   15.6661 H   0  0  0  0  0  0  0  0  0  0  0  0
  -11.6212  -26.6739   10.2417 H   0  0  0  0  0  0  0  0  0  0  0  0
   -9.2962  -20.2106   14.8460 H   0  0  0  0  0  0  0  0  0  0  0  0
   -6.2640  -13.6348   13.5022 H   0  0  0  0  0  0  0  0  0  0  0  0
   -7.5923  -13.3738   12.3451 H   0  0  0  0  0  0  0  0  0  0  0  0
   -7.8708  -13.1131   14.0661 H   0  0  0  0  0  0  0  0  0  0  0  0
   -8.8950  -18.0842   10.1688 H   0  0  0  0  0  0  0  0  0  0  0  0
   -7.6363  -19.3199   10.3897 H   0  0  0  0  0  0  0  0  0  0  0  0
   -7.2230  -17.6016   10.5317 H   0  0  0  0  0  0  0  0  0  0  0  0
   -9.1317  -22.8740   11.3549 H   0  0  0  0  0  0  0  0  0  0  0  0
   -8.1316  -21.1861   11.8802 H   0  0  0  0  0  0  0  0  0  0  0  0
  1  4  2  0
  1  5  1  0
  2  5  2  0
  2  6  1  0
  3  7  1  0
  3  8  2  0
  4 16  1  0
  5 20  1  0
  6 15  1  0
  6 16  2  0
  7 13  1  0
  7 17  2  0
  8 18  1  0
  8 19  1  0
  9 10  1  0
  9 18  2  0
 10 11  2  0
 10 21  1  0
 11 14  1  0
 11 19  1  0
 12 20  1  0
 12 21  1  0
 12 22  2  0
 15 23  1  0
 15 24  1  0
 15 25  1  0
 17 19  1  0
  1 26  1  0
  2 27  1  0
  3 28  1  0
  4 29  1  0
  9 30  1  0
 13 31  1  0
 13 32  1  0
 13 33  1  0
 14 34  1  0
 14 35  1  0
 14 36  1  0
 20 37  1  0
 21 38  1  0
M  END
>  <IC50 (nM)>  (3) 
5810.657

>  <IC50_operator>  (3) 
=

>  <Collaboration_Compound_ID>  (3) 
Pfizer-01-04

>  <experimental dG reference units>  (3) 
nM

>  <experimental dG reference field>  (3) 
IC50 (nM)

>  <kJ/mol experimental dG>  (3) 
-30.07146746670021

>  <kcal/mol experimental dG>  (3) 
-7.187253218618596

$$$$
Pfizer-01-07
     RDKit          3D

 42 45  0  0  0  0  0  0  0  0999 V2000
  -10.5661  -24.7632   10.9877 C   0  0  0  0  0  0  0  0  0  0  0  0
  -12.3690  -23.4264   11.8520 C   0  0  0  0  0  0  0  0  0  0  0  0
  -11.4515  -25.8278   10.9370 C   0  0  0  0  0  0  0  0  0  0  0  0
   -7.9093  -15.7176   14.6589 C   0  0  0  0  0  0  0  0  0  0  0  0
   -9.1558  -19.1097   14.1699 C   0  0  0  0  0  0  0  0  0  0  0  0
   -8.2609  -18.1954   12.1387 C   0  0  0  0  0  0  0  0  0  0  0  0
   -8.3212  -16.9977   14.2481 C   0  0  0  0  0  0  0  0  0  0  0  0
   -7.9983  -17.0605   12.9001 C   0  0  0  0  0  0  0  0  0  0  0  0
  -11.0415  -23.5430   11.4551 C   0  0  0  0  0  0  0  0  0  0  0  0
   -8.8637  -19.2514   12.8176 C   0  0  0  0  0  0  0  0  0  0  0  0
  -13.1737  -24.5508   11.7624 C   0  0  0  0  0  0  0  0  0  0  0  0
  -10.2267  -21.3521   12.4323 C   0  0  0  0  0  0  0  0  0  0  0  0
   -8.4279  -17.1265    9.7928 C   0  0  0  0  0  0  0  0  0  0  0  0
   -8.9590  -18.5206    9.6719 C   0  0  0  0  0  0  0  0  0  0  0  0
   -7.8986  -18.2105   10.7037 C   0  0  0  0  0  0  0  0  0  0  0  0
   -6.9218  -15.3985   11.3377 C   0  0  0  0  0  0  0  0  0  0  0  0
  -14.6035  -24.4621   12.1816 C   0  0  0  0  0  0  0  0  0  0  0  0
   -8.9075  -18.0138   14.9255 N   0  0  0  0  0  0  0  0  0  0  0  0
  -12.7476  -25.7528   11.3137 N   0  0  0  0  0  0  0  0  0  0  0  0
   -7.3663  -15.0124   13.6621 N   0  0  0  0  0  0  0  0  0  0  0  0
   -7.4339  -15.8507   12.6111 N   0  0  0  0  0  0  0  0  0  0  0  0
  -10.1771  -22.4252   11.5282 N   0  0  0  0  0  0  0  0  0  0  0  0
   -9.1753  -20.4430   12.1614 N   0  0  0  0  0  0  0  0  0  0  0  0
  -11.0551  -21.2157   13.3268 O   0  0  0  0  0  0  0  0  0  0  0  0
  -14.9668  -23.2228   12.6254 F   0  0  0  0  0  0  0  0  0  0  0  0
  -15.4847  -24.7554   11.1807 F   0  0  0  0  0  0  0  0  0  0  0  0
  -14.9052  -25.3193   13.1993 F   0  0  0  0  0  0  0  0  0  0  0  0
   -9.5364  -24.8889   10.6699 H   0  0  0  0  0  0  0  0  0  0  0  0
  -12.7625  -22.4842   12.2213 H   0  0  0  0  0  0  0  0  0  0  0  0
  -11.1307  -26.8013   10.5810 H   0  0  0  0  0  0  0  0  0  0  0  0
   -7.9805  -15.2671   15.6384 H   0  0  0  0  0  0  0  0  0  0  0  0
   -9.6253  -19.9233   14.7187 H   0  0  0  0  0  0  0  0  0  0  0  0
   -7.7741  -16.7660    9.0072 H   0  0  0  0  0  0  0  0  0  0  0  0
   -9.0859  -16.3714   10.2054 H   0  0  0  0  0  0  0  0  0  0  0  0
   -9.9738  -18.7028   10.0053 H   0  0  0  0  0  0  0  0  0  0  0  0
   -8.6650  -19.0997    8.8047 H   0  0  0  0  0  0  0  0  0  0  0  0
   -6.8993  -18.5721   10.4742 H   0  0  0  0  0  0  0  0  0  0  0  0
   -7.7396  -14.9135   10.7983 H   0  0  0  0  0  0  0  0  0  0  0  0
   -6.1026  -14.6935   11.5044 H   0  0  0  0  0  0  0  0  0  0  0  0
   -6.5463  -16.2569   10.7738 H   0  0  0  0  0  0  0  0  0  0  0  0
   -9.4278  -22.3954   10.8415 H   0  0  0  0  0  0  0  0  0  0  0  0
   -8.5698  -20.7054   11.3765 H   0  0  0  0  0  0  0  0  0  0  0  0
  1  3  2  0
  1  9  1  0
  2  9  2  0
  2 11  1  0
  3 19  1  0
  4  7  1  0
  4 20  2  0
  5 10  1  0
  5 18  2  0
  6  8  1  0
  6 10  2  0
  6 15  1  0
  7  8  2  0
  7 18  1  0
  8 21  1  0
  9 22  1  0
 10 23  1  0
 11 17  1  0
 11 19  2  0
 12 22  1  0
 12 23  1  0
 12 24  2  0
 13 14  1  0
 13 15  1  0
 14 15  1  0
 16 21  1  0
 17 25  1  0
 17 26  1  0
 17 27  1  0
 20 21  1  0
  1 28  1  0
  2 29  1  0
  3 30  1  0
  4 31  1  0
  5 32  1  0
 13 33  1  0
 13 34  1  0
 14 35  1  0
 14 36  1  0
 15 37  1  0
 16 38  1  0
 16 39  1  0
 16 40  1  0
 22 41  1  0
 23 42  1  0
M  END
>  <IC50 (nM)>  (4) 
19565.105

>  <IC50_operator>  (4) 
>

>  <Collaboration_Compound_ID>  (4) 
Pfizer-01-07

>  <experimental dG reference units>  (4) 
nM

>  <experimental dG reference field>  (4) 
IC50 (nM)

>  <kJ/mol experimental dG>  (4) 
-27.043187845575556

>  <kcal/mol experimental dG>  (4) 
-6.463477018541003

$$$$
Pfizer-01-10
     RDKit          3D

 43 45  0  0  0  0  0  0  0  0999 V2000
  -10.4981  -24.7486   10.8779 C   0  0  0  0  0  0  0  0  0  0  0  0
  -12.2319  -23.4915   11.9694 C   0  0  0  0  0  0  0  0  0  0  0  0
  -11.4252  -25.7535   10.6720 C   0  0  0  0  0  0  0  0  0  0  0  0
  -10.9075  -23.5968   11.5507 C   0  0  0  0  0  0  0  0  0  0  0  0
  -13.0942  -24.5535   11.7106 C   0  0  0  0  0  0  0  0  0  0  0  0
   -7.6603  -15.1472   13.5162 C   0  0  0  0  0  0  0  0  0  0  0  0
   -8.3313  -17.0122   14.2164 C   0  0  0  0  0  0  0  0  0  0  0  0
   -8.9952  -19.1646   14.2347 C   0  0  0  0  0  0  0  0  0  0  0  0
   -8.7310  -19.3654   12.7821 C   0  0  0  0  0  0  0  0  0  0  0  0
   -8.2402  -18.2972   12.1175 C   0  0  0  0  0  0  0  0  0  0  0  0
  -10.0677  -21.4114   12.4721 C   0  0  0  0  0  0  0  0  0  0  0  0
   -7.2756  -13.7260   13.5176 C   0  0  0  0  0  0  0  0  0  0  0  0
   -9.1546  -17.6886    9.8394 C   0  0  0  0  0  0  0  0  0  0  0  0
   -6.6407  -17.7622   10.1640 C   0  0  0  0  0  0  0  0  0  0  0  0
   -7.9911  -18.3231   10.6070 C   0  0  0  0  0  0  0  0  0  0  0  0
  -14.5283  -24.4646   12.1291 C   0  0  0  0  0  0  0  0  0  0  0  0
  -12.7104  -25.6838   11.0723 N   0  0  0  0  0  0  0  0  0  0  0  0
   -8.0661  -15.7940   14.6408 N   0  0  0  0  0  0  0  0  0  0  0  0
   -7.6474  -15.8843   12.4074 N   0  0  0  0  0  0  0  0  0  0  0  0
   -8.8038  -18.0789   14.9159 N   0  0  0  0  0  0  0  0  0  0  0  0
   -8.0596  -17.1019   12.8432 N   0  0  0  0  0  0  0  0  0  0  0  0
   -9.9402  -22.5912   11.7345 N   0  0  0  0  0  0  0  0  0  0  0  0
   -8.9749  -20.5828   12.2038 N   0  0  0  0  0  0  0  0  0  0  0  0
  -11.0045  -21.1062   13.2050 O   0  0  0  0  0  0  0  0  0  0  0  0
  -14.6756  -24.2206   13.4598 F   0  0  0  0  0  0  0  0  0  0  0  0
  -15.2018  -23.4728   11.4853 F   0  0  0  0  0  0  0  0  0  0  0  0
  -15.2213  -25.6088   11.8807 F   0  0  0  0  0  0  0  0  0  0  0  0
   -9.4791  -24.8687   10.5240 H   0  0  0  0  0  0  0  0  0  0  0  0
  -12.6202  -22.6106   12.4658 H   0  0  0  0  0  0  0  0  0  0  0  0
  -11.1477  -26.6691   10.1616 H   0  0  0  0  0  0  0  0  0  0  0  0
   -9.3557  -20.0475   14.7869 H   0  0  0  0  0  0  0  0  0  0  0  0
   -6.2523  -13.6018   13.1499 H   0  0  0  0  0  0  0  0  0  0  0  0
   -7.9478  -13.1477   12.8760 H   0  0  0  0  0  0  0  0  0  0  0  0
   -7.3260  -13.3067   14.5272 H   0  0  0  0  0  0  0  0  0  0  0  0
   -9.2593  -16.6214   10.0539 H   0  0  0  0  0  0  0  0  0  0  0  0
  -10.1016  -18.1806   10.0927 H   0  0  0  0  0  0  0  0  0  0  0  0
   -9.0084  -17.8037    8.7595 H   0  0  0  0  0  0  0  0  0  0  0  0
   -6.5882  -16.6740   10.2447 H   0  0  0  0  0  0  0  0  0  0  0  0
   -6.4628  -18.0120    9.1117 H   0  0  0  0  0  0  0  0  0  0  0  0
   -5.8265  -18.2004   10.7504 H   0  0  0  0  0  0  0  0  0  0  0  0
   -7.9605  -19.3628   10.2657 H   0  0  0  0  0  0  0  0  0  0  0  0
   -9.0347  -22.7595   11.3031 H   0  0  0  0  0  0  0  0  0  0  0  0
   -8.4402  -20.8250   11.3771 H   0  0  0  0  0  0  0  0  0  0  0  0
  1  3  2  0
  1  4  1  0
  2  4  2  0
  2  5  1  0
  3 17  1  0
  4 22  1  0
  5 16  1  0
  5 17  2  0
  6 12  1  0
  6 18  1  0
  6 19  2  0
  7 18  2  0
  7 20  1  0
  7 21  1  0
  8  9  1  0
  8 20  2  0
  9 10  2  0
  9 23  1  0
 10 15  1  0
 10 21  1  0
 11 22  1  0
 11 23  1  0
 11 24  2  0
 13 15  1  0
 14 15  1  0
 16 25  1  0
 16 26  1  0
 16 27  1  0
 19 21  1  0
  1 28  1  0
  2 29  1  0
  3 30  1  0
  8 31  1  0
 12 32  1  0
 12 33  1  0
 12 34  1  0
 13 35  1  0
 13 36  1  0
 13 37  1  0
 14 38  1  0
 14 39  1  0
 14 40  1  0
 15 41  1  0
 22 42  1  0
 23 43  1  0
M  END
>  <IC50 (nM)>  (5) 
20000.0

>  <IC50_operator>  (5) 
>

>  <Collaboration_Compound_ID>  (5) 
Pfizer-01-10

>  <experimental dG reference units>  (5) 
nM

>  <experimental dG reference field>  (5) 
IC50 (nM)

>  <kJ/mol experimental dG>  (5) 
-26.98835035695819

>  <kcal/mol experimental dG>  (5) 
-6.450370544206068

$$$$
1832576-04-1
     RDKit          3D

 42 44  0  0  1  0  0  0  0  0999 V2000
  -10.7271  -24.6686   10.8333 C   0  0  0  0  0  0  0  0  0  0  0  0
  -12.2844  -23.2778   12.0269 C   0  0  0  0  0  0  0  0  0  0  0  0
   -8.0777  -15.7393   14.6986 C   0  0  0  0  0  0  0  0  0  0  0  0
  -11.7456  -25.5976   10.6951 C   0  0  0  0  0  0  0  0  0  0  0  0
  -11.0098  -23.4891   11.5132 C   0  0  0  0  0  0  0  0  0  0  0  0
  -13.2334  -24.2690   11.8352 C   0  0  0  0  0  0  0  0  0  0  0  0
   -7.7189  -15.0618   13.5282 C   0  0  0  0  0  0  0  0  0  0  0  0
   -8.3295  -17.0309   14.2963 C   0  0  0  0  0  0  0  0  0  0  0  0
   -8.8694  -19.2178   14.2952 C   0  0  0  0  0  0  0  0  0  0  0  0
   -8.6662  -19.3682   12.8279 C   0  0  0  0  0  0  0  0  0  0  0  0
   -8.2840  -18.2556   12.1737 C   0  0  0  0  0  0  0  0  0  0  0  0
  -10.1079  -21.2748   12.3334 C   0  0  0  0  0  0  0  0  0  0  0  0
   -9.2407  -18.6046    9.9062 C   0  0  0  0  0  0  0  0  0  0  0  0
   -5.6868  -18.4274   10.7652 C   0  0  0  0  0  0  0  0  0  0  0  0
   -8.0225  -18.1776   10.6939 C   0  0  2  0  0  0  0  0  0  0  0  0
  -14.6116  -24.0763   12.3749 C   0  0  0  0  0  0  0  0  0  0  0  0
  -12.9960  -25.4277   11.1803 N   0  0  0  0  0  0  0  0  0  0  0  0
   -7.7344  -15.8444   12.4514 N   0  0  0  0  0  0  0  0  0  0  0  0
   -8.7160  -18.1347   14.9920 N   0  0  0  0  0  0  0  0  0  0  0  0
   -8.1127  -17.0692   12.9159 N   0  0  0  0  0  0  0  0  0  0  0  0
  -10.0040  -22.5092   11.6830 N   0  0  0  0  0  0  0  0  0  0  0  0
   -8.8812  -20.5962   12.2822 N   0  0  0  0  0  0  0  0  0  0  0  0
  -11.1109  -20.8205   12.8795 O   0  0  0  0  0  0  0  0  0  0  0  0
   -6.9307  -19.0391   10.4395 O   0  0  0  0  0  0  0  0  0  0  0  0
  -14.7823  -22.8879   13.0254 F   0  0  0  0  0  0  0  0  0  0  0  0
  -15.5818  -24.1002   11.4145 F   0  0  0  0  0  0  0  0  0  0  0  0
  -14.9616  -25.0407   13.2744 F   0  0  0  0  0  0  0  0  0  0  0  0
   -7.2988  -13.4245   13.4152 Cl  0  0  0  0  0  0  0  0  0  0  0  0
   -9.7436  -24.8654   10.4198 H   0  0  0  0  0  0  0  0  0  0  0  0
  -12.5284  -22.3652   12.5623 H   0  0  0  0  0  0  0  0  0  0  0  0
   -8.1489  -15.3551   15.7064 H   0  0  0  0  0  0  0  0  0  0  0  0
  -11.5770  -26.5343   10.1740 H   0  0  0  0  0  0  0  0  0  0  0  0
   -9.1832  -20.1316   14.8274 H   0  0  0  0  0  0  0  0  0  0  0  0
   -9.5145  -19.6328   10.1647 H   0  0  0  0  0  0  0  0  0  0  0  0
   -9.0463  -18.5895    8.8278 H   0  0  0  0  0  0  0  0  0  0  0  0
  -10.0951  -17.9502   10.1056 H   0  0  0  0  0  0  0  0  0  0  0  0
   -4.8714  -19.1237   10.5548 H   0  0  0  0  0  0  0  0  0  0  0  0
   -5.6812  -18.1519   11.8228 H   0  0  0  0  0  0  0  0  0  0  0  0
   -5.5622  -17.5291   10.1560 H   0  0  0  0  0  0  0  0  0  0  0  0
   -7.7302  -17.1552   10.4530 H   0  0  0  0  0  0  0  0  0  0  0  0
   -9.0948  -22.7286   11.2837 H   0  0  0  0  0  0  0  0  0  0  0  0
   -8.0970  -21.0398   11.8105 H   0  0  0  0  0  0  0  0  0  0  0  0
  1  4  2  0
  1  5  1  0
  2  5  2  0
  2  6  1  0
  3  7  1  0
  3  8  2  0
  4 17  1  0
  5 21  1  0
  6 16  1  0
  6 17  2  0
  7 18  2  0
  7 28  1  0
  8 19  1  0
  8 20  1  0
  9 10  1  0
  9 19  2  0
 10 11  2  0
 10 22  1  0
 11 15  1  0
 11 20  1  0
 12 21  1  0
 12 22  1  0
 12 23  2  0
 13 15  1  0
 14 24  1  0
 15 24  1  0
 16 25  1  0
 16 26  1  0
 16 27  1  0
 18 20  1  0
  1 29  1  0
  2 30  1  0
  3 31  1  0
  4 32  1  0
  9 33  1  0
 13 34  1  0
 13 35  1  0
 13 36  1  0
 14 37  1  0
 14 38  1  0
 14 39  1  0
 15 40  1  6
 21 41  1  0
 22 42  1  0
M  END
>  <IC50 (nM)>  (6) 
49.257

>  <IC50_operator>  (6) 
=

>  <Collaboration_Compound_ID>  (6) 
1832576-04-1

>  <experimental dG reference units>  (6) 
nM

>  <experimental dG reference field>  (6) 
IC50 (nM)

>  <kJ/mol experimental dG>  (6) 
-41.97052435395307

>  <kcal/mol experimental dG>  (6) 
-10.031196069300446

$$$$
Pfizer-01-01
     RDKit          3D

 41 43  0  0  0  0  0  0  0  0999 V2000
  -10.4516  -24.7374   10.8592 C   0  0  0  0  0  0  0  0  0  0  0  0
   -8.0415  -15.7554   14.6861 C   0  0  0  0  0  0  0  0  0  0  0  0
  -12.1995  -23.5068   11.9598 C   0  0  0  0  0  0  0  0  0  0  0  0
  -11.3650  -25.7538   10.6519 C   0  0  0  0  0  0  0  0  0  0  0  0
   -7.6252  -15.0904   13.5309 C   0  0  0  0  0  0  0  0  0  0  0  0
  -10.8751  -23.5938   11.5374 C   0  0  0  0  0  0  0  0  0  0  0  0
  -13.0474  -24.5795   11.6985 C   0  0  0  0  0  0  0  0  0  0  0  0
   -8.3405  -17.0307   14.2671 C   0  0  0  0  0  0  0  0  0  0  0  0
   -9.0021  -19.1792   14.2556 C   0  0  0  0  0  0  0  0  0  0  0  0
   -8.7289  -19.3573   12.8025 C   0  0  0  0  0  0  0  0  0  0  0  0
   -8.2349  -18.2799   12.1537 C   0  0  0  0  0  0  0  0  0  0  0  0
  -10.0585  -21.4037   12.4667 C   0  0  0  0  0  0  0  0  0  0  0  0
   -9.1650  -17.7186    9.8701 C   0  0  0  0  0  0  0  0  0  0  0  0
   -6.6506  -17.6895   10.1921 C   0  0  0  0  0  0  0  0  0  0  0  0
   -7.9771  -18.2985   10.6433 C   0  0  0  0  0  0  0  0  0  0  0  0
  -14.4786  -24.5193   12.1303 C   0  0  0  0  0  0  0  0  0  0  0  0
  -12.6493  -25.7028   11.0565 N   0  0  0  0  0  0  0  0  0  0  0  0
   -7.6436  -15.8678   12.4511 N   0  0  0  0  0  0  0  0  0  0  0  0
   -8.8156  -18.1033   14.9523 N   0  0  0  0  0  0  0  0  0  0  0  0
   -8.0598  -17.0872   12.8947 N   0  0  0  0  0  0  0  0  0  0  0  0
   -9.9191  -22.5788   11.7247 N   0  0  0  0  0  0  0  0  0  0  0  0
   -8.9690  -20.5680   12.2086 N   0  0  0  0  0  0  0  0  0  0  0  0
  -11.0007  -21.1080   13.1964 O   0  0  0  0  0  0  0  0  0  0  0  0
  -15.1528  -23.4749   11.5765 F   0  0  0  0  0  0  0  0  0  0  0  0
  -15.1768  -25.6365   11.7900 F   0  0  0  0  0  0  0  0  0  0  0  0
  -14.6164  -24.3881   13.4776 F   0  0  0  0  0  0  0  0  0  0  0  0
   -9.4316  -24.8426   10.5033 H   0  0  0  0  0  0  0  0  0  0  0  0
   -8.1283  -15.3694   15.6916 H   0  0  0  0  0  0  0  0  0  0  0  0
  -12.5978  -22.6339   12.4625 H   0  0  0  0  0  0  0  0  0  0  0  0
  -11.0765  -26.6639   10.1381 H   0  0  0  0  0  0  0  0  0  0  0  0
   -7.3103  -14.0623   13.4264 H   0  0  0  0  0  0  0  0  0  0  0  0
   -9.3639  -20.0703   14.7933 H   0  0  0  0  0  0  0  0  0  0  0  0
   -9.3154  -16.6559   10.0803 H   0  0  0  0  0  0  0  0  0  0  0  0
  -10.0909  -18.2494   10.1233 H   0  0  0  0  0  0  0  0  0  0  0  0
   -9.0120  -17.8326    8.7910 H   0  0  0  0  0  0  0  0  0  0  0  0
   -6.6454  -16.5986   10.2486 H   0  0  0  0  0  0  0  0  0  0  0  0
   -6.4604  -17.9536    9.1452 H   0  0  0  0  0  0  0  0  0  0  0  0
   -5.8198  -18.0816   10.7876 H   0  0  0  0  0  0  0  0  0  0  0  0
   -7.9000  -19.3380   10.3085 H   0  0  0  0  0  0  0  0  0  0  0  0
   -9.0114  -22.7367   11.2938 H   0  0  0  0  0  0  0  0  0  0  0  0
   -8.4315  -20.8010   11.3813 H   0  0  0  0  0  0  0  0  0  0  0  0
  1  4  2  0
  1  6  1  0
  2  5  1  0
  2  8  2  0
  3  6  2  0
  3  7  1  0
  4 17  1  0
  5 18  2  0
  6 21  1  0
  7 16  1  0
  7 17  2  0
  8 19  1  0
  8 20  1  0
  9 10  1  0
  9 19  2  0
 10 11  2  0
 10 22  1  0
 11 15  1  0
 11 20  1  0
 12 21  1  0
 12 22  1  0
 12 23  2  0
 13 15  1  0
 14 15  1  0
 16 24  1  0
 16 25  1  0
 16 26  1  0
 18 20  1  0
  1 27  1  0
  2 28  1  0
  3 29  1  0
  4 30  1  0
  5 31  1  0
  9 32  1  0
 13 33  1  0
 13 34  1  0
 13 35  1  0
 14 36  1  0
 14 37  1  0
 14 38  1  0
 15 39  1  0
 21 40  1  0
 22 41  1  0
M  END
>  <IC50 (nM)>  (7) 
359.95273

>  <IC50_operator>  (7) 
=

>  <Collaboration_Compound_ID>  (7) 
Pfizer-01-01

>  <experimental dG reference units>  (7) 
nM

>  <experimental dG reference field>  (7) 
IC50 (nM)

>  <kJ/mol experimental dG>  (7) 
-37.009451999547046

>  <kcal/mol experimental dG>  (7) 
-8.845471319203405

$$$$
Pfizer-01-03
     RDKit          3D

 42 45  0  0  0  0  0  0  0  0999 V2000
  -10.4196  -24.7108   10.8398 C   0  0  0  0  0  0  0  0  0  0  0  0
  -12.1692  -23.4795   11.9345 C   0  0  0  0  0  0  0  0  0  0  0  0
   -8.0661  -15.7417   14.7392 C   0  0  0  0  0  0  0  0  0  0  0  0
  -11.3289  -25.7350   10.6488 C   0  0  0  0  0  0  0  0  0  0  0  0
  -10.8452  -23.5610   11.5057 C   0  0  0  0  0  0  0  0  0  0  0  0
  -13.0145  -24.5585   11.6863 C   0  0  0  0  0  0  0  0  0  0  0  0
   -7.6314  -15.0544   13.5946 C   0  0  0  0  0  0  0  0  0  0  0  0
   -8.3336  -17.0203   14.3105 C   0  0  0  0  0  0  0  0  0  0  0  0
   -8.9956  -19.1694   14.2568 C   0  0  0  0  0  0  0  0  0  0  0  0
   -8.7058  -19.3218   12.8045 C   0  0  0  0  0  0  0  0  0  0  0  0
   -8.1612  -18.2472   12.1937 C   0  0  0  0  0  0  0  0  0  0  0  0
  -10.0335  -21.3681   12.4305 C   0  0  0  0  0  0  0  0  0  0  0  0
   -6.6551  -17.5207   10.1579 C   0  0  0  0  0  0  0  0  0  0  0  0
   -6.6786  -19.0123   10.2415 C   0  0  0  0  0  0  0  0  0  0  0  0
   -7.8577  -18.2074   10.7442 C   0  0  0  0  0  0  0  0  0  0  0  0
   -7.2433  -13.6330   13.4757 C   0  0  0  0  0  0  0  0  0  0  0  0
  -14.4504  -24.4937   12.1028 C   0  0  0  0  0  0  0  0  0  0  0  0
  -12.6129  -25.6862   11.0551 N   0  0  0  0  0  0  0  0  0  0  0  0
   -7.6034  -15.8409   12.5178 N   0  0  0  0  0  0  0  0  0  0  0  0
   -8.8156  -18.1045   14.9734 N   0  0  0  0  0  0  0  0  0  0  0  0
   -8.0118  -17.0649   12.9506 N   0  0  0  0  0  0  0  0  0  0  0  0
   -9.8969  -22.5314   11.6693 N   0  0  0  0  0  0  0  0  0  0  0  0
   -8.9735  -20.4986   12.1521 N   0  0  0  0  0  0  0  0  0  0  0  0
  -10.9542  -21.1113   13.2020 O   0  0  0  0  0  0  0  0  0  0  0  0
  -14.6046  -24.2609   13.4344 F   0  0  0  0  0  0  0  0  0  0  0  0
  -15.1382  -23.5085   11.4637 F   0  0  0  0  0  0  0  0  0  0  0  0
  -15.1243  -25.6473   11.8443 F   0  0  0  0  0  0  0  0  0  0  0  0
   -9.4007  -24.8158   10.4813 H   0  0  0  0  0  0  0  0  0  0  0  0
  -12.5719  -22.6017   12.4253 H   0  0  0  0  0  0  0  0  0  0  0  0
   -8.1916  -15.3616   15.7430 H   0  0  0  0  0  0  0  0  0  0  0  0
  -11.0380  -26.6502   10.1454 H   0  0  0  0  0  0  0  0  0  0  0  0
   -9.3626  -20.0687   14.7764 H   0  0  0  0  0  0  0  0  0  0  0  0
   -5.9500  -17.0072   10.7970 H   0  0  0  0  0  0  0  0  0  0  0  0
   -6.7773  -17.0712    9.1789 H   0  0  0  0  0  0  0  0  0  0  0  0
   -6.8038  -19.5704    9.3217 H   0  0  0  0  0  0  0  0  0  0  0  0
   -6.0061  -19.4747   10.9547 H   0  0  0  0  0  0  0  0  0  0  0  0
   -8.7498  -18.2247   10.1228 H   0  0  0  0  0  0  0  0  0  0  0  0
   -6.2256  -13.5432   13.0830 H   0  0  0  0  0  0  0  0  0  0  0  0
   -7.9245  -13.1093   12.7972 H   0  0  0  0  0  0  0  0  0  0  0  0
   -7.2779  -13.1293   14.4469 H   0  0  0  0  0  0  0  0  0  0  0  0
   -8.9969  -22.6746   11.2178 H   0  0  0  0  0  0  0  0  0  0  0  0
   -8.4869  -20.6624   11.2757 H   0  0  0  0  0  0  0  0  0  0  0  0
  1  4  2  0
  1  5  1  0
  2  5  2  0
  2  6  1  0
  3  7  1  0
  3  8  2  0
  4 18  1  0
  5 22  1  0
  6 17  1  0
  6 18  2  0
  7 16  1  0
  7 19  2  0
  8 20  1  0
  8 21  1  0
  9 10  1  0
  9 20  2  0
 10 11  2  0
 10 23  1  0
 11 15  1  0
 11 21  1  0
 12 22  1  0
 12 23  1  0
 12 24  2  0
 13 14  1  0
 13 15  1  0
 14 15  1  0
 17 25  1  0
 17 26  1  0
 17 27  1  0
 19 21  1  0
  1 28  1  0
  2 29  1  0
  3 30  1  0
  4 31  1  0
  9 32  1  0
 13 33  1  0
 13 34  1  0
 14 35  1  0
 14 36  1  0
 15 37  1  0
 16 38  1  0
 16 39  1  0
 16 40  1  0
 22 41  1  0
 23 42  1  0
M  END
>  <IC50 (nM)>  (8) 
863.8893

>  <IC50_operator>  (8) 
=

>  <Collaboration_Compound_ID>  (8) 
Pfizer-01-03

>  <experimental dG reference units>  (8) 
nM

>  <experimental dG reference field>  (8) 
IC50 (nM)

>  <kJ/mol experimental dG>  (8) 
-34.825715675356534

>  <kcal/mol experimental dG>  (8) 
-8.323545811509687

$$$$
Pfizer-01-11
     RDKit          3D

 37 39  0  0  0  0  0  0  0  0999 V2000
  -10.3836  -24.6688   10.8238 C   0  0  0  0  0  0  0  0  0  0  0  0
  -12.1296  -23.4625   11.9514 C   0  0  0  0  0  0  0  0  0  0  0  0
   -8.0899  -15.7885   14.7624 C   0  0  0  0  0  0  0  0  0  0  0  0
  -11.2843  -25.7026   10.6421 C   0  0  0  0  0  0  0  0  0  0  0  0
  -10.8112  -23.5268   11.5017 C   0  0  0  0  0  0  0  0  0  0  0  0
  -12.9673  -24.5490   11.7088 C   0  0  0  0  0  0  0  0  0  0  0  0
   -7.6005  -15.0734   13.6522 C   0  0  0  0  0  0  0  0  0  0  0  0
   -8.3482  -17.0506   14.2837 C   0  0  0  0  0  0  0  0  0  0  0  0
   -8.1465  -18.2106   12.1819 C   0  0  0  0  0  0  0  0  0  0  0  0
   -8.7289  -19.2588   12.8094 C   0  0  0  0  0  0  0  0  0  0  0  0
  -10.0069  -21.3342   12.4335 C   0  0  0  0  0  0  0  0  0  0  0  0
   -7.2241  -13.6463   13.5747 C   0  0  0  0  0  0  0  0  0  0  0  0
   -7.7525  -18.1412   10.7323 C   0  0  0  0  0  0  0  0  0  0  0  0
  -14.3947  -24.5088   12.1569 C   0  0  0  0  0  0  0  0  0  0  0  0
  -12.5623  -25.6702   11.0682 N   0  0  0  0  0  0  0  0  0  0  0  0
   -7.5073  -15.8400   12.5627 N   0  0  0  0  0  0  0  0  0  0  0  0
   -8.8764  -18.1683   14.8503 N   0  0  0  0  0  0  0  0  0  0  0  0
   -9.0950  -19.1907   14.1474 N   0  0  0  0  0  0  0  0  0  0  0  0
   -7.9761  -17.0526   12.9486 N   0  0  0  0  0  0  0  0  0  0  0  0
   -9.8723  -22.4859   11.6546 N   0  0  0  0  0  0  0  0  0  0  0  0
   -8.9727  -20.4379   12.1359 N   0  0  0  0  0  0  0  0  0  0  0  0
  -10.9062  -21.1054   13.2390 O   0  0  0  0  0  0  0  0  0  0  0  0
  -15.0771  -23.4454   11.6513 F   0  0  0  0  0  0  0  0  0  0  0  0
  -15.0941  -25.6137   11.7794 F   0  0  0  0  0  0  0  0  0  0  0  0
  -14.5189  -24.4308   13.5095 F   0  0  0  0  0  0  0  0  0  0  0  0
   -9.3690  -24.7617   10.4502 H   0  0  0  0  0  0  0  0  0  0  0  0
  -12.5337  -22.5915   12.4534 H   0  0  0  0  0  0  0  0  0  0  0  0
   -8.2635  -15.4311   15.7672 H   0  0  0  0  0  0  0  0  0  0  0  0
  -10.9914  -26.6126   10.1306 H   0  0  0  0  0  0  0  0  0  0  0  0
   -6.2032  -13.5367   13.1960 H   0  0  0  0  0  0  0  0  0  0  0  0
   -7.9018  -13.1131   12.8994 H   0  0  0  0  0  0  0  0  0  0  0  0
   -7.2778  -13.1671   14.5568 H   0  0  0  0  0  0  0  0  0  0  0  0
   -8.2288  -17.2800   10.2501 H   0  0  0  0  0  0  0  0  0  0  0  0
   -8.0520  -19.0184   10.1541 H   0  0  0  0  0  0  0  0  0  0  0  0
   -6.6670  -18.0354   10.6392 H   0  0  0  0  0  0  0  0  0  0  0  0
   -8.9808  -22.6131   11.1820 H   0  0  0  0  0  0  0  0  0  0  0  0
   -8.4576  -20.6120   11.2793 H   0  0  0  0  0  0  0  0  0  0  0  0
  1  4  2  0
  1  5  1  0
  2  5  2  0
  2  6  1  0
  3  7  1  0
  3  8  2  0
  4 15  1  0
  5 20  1  0
  6 14  1  0
  6 15  2  0
  7 12  1  0
  7 16  2  0
  8 17  1  0
  8 19  1  0
  9 10  2  0
  9 13  1  0
  9 19  1  0
 10 18  1  0
 10 21  1  0
 11 20  1  0
 11 21  1  0
 11 22  2  0
 14 23  1  0
 14 24  1  0
 14 25  1  0
 16 19  1  0
 17 18  2  0
  1 26  1  0
  2 27  1  0
  3 28  1  0
  4 29  1  0
 12 30  1  0
 12 31  1  0
 12 32  1  0
 13 33  1  0
 13 34  1  0
 13 35  1  0
 20 36  1  0
 21 37  1  0
M  END
>  <IC50 (nM)>  (9) 
20000.0

>  <IC50_operator>  (9) 
>

>  <Collaboration_Compound_ID>  (9) 
Pfizer-01-11

>  <experimental dG reference units>  (9) 
nM

>  <experimental dG reference field>  (9) 
IC50 (nM)

>  <kJ/mol experimental dG>  (9) 
-26.98835035695819

>  <kcal/mol experimental dG>  (9) 
-6.450370544206068

$$$$
Pfizer-01-05
     RDKit          3D

 35 37  0  0  0  0  0  0  0  0999 V2000
  -10.6201  -24.8275   10.9414 C   0  0  0  0  0  0  0  0  0  0  0  0
  -12.3615  -23.4220   11.8225 C   0  0  0  0  0  0  0  0  0  0  0  0
   -8.0572  -15.8846   14.6845 C   0  0  0  0  0  0  0  0  0  0  0  0
  -11.5318  -25.8708   10.9503 C   0  0  0  0  0  0  0  0  0  0  0  0
  -11.0508  -23.5830   11.3874 C   0  0  0  0  0  0  0  0  0  0  0  0
  -13.1954  -24.5282   11.7918 C   0  0  0  0  0  0  0  0  0  0  0  0
   -7.5192  -15.2164   13.5763 C   0  0  0  0  0  0  0  0  0  0  0  0
   -8.4061  -17.1291   14.2115 C   0  0  0  0  0  0  0  0  0  0  0  0
   -8.2875  -18.2737   12.0740 C   0  0  0  0  0  0  0  0  0  0  0  0
   -9.1699  -19.2508   14.0621 C   0  0  0  0  0  0  0  0  0  0  0  0
   -8.8396  -19.3638   12.6171 C   0  0  0  0  0  0  0  0  0  0  0  0
  -10.1548  -21.3908   12.2711 C   0  0  0  0  0  0  0  0  0  0  0  0
   -6.9891  -13.8429   13.5303 C   0  0  0  0  0  0  0  0  0  0  0  0
  -14.6083  -24.3920   12.2533 C   0  0  0  0  0  0  0  0  0  0  0  0
  -12.8129  -25.7528   11.3655 N   0  0  0  0  0  0  0  0  0  0  0  0
   -7.5161  -15.9619   12.4720 N   0  0  0  0  0  0  0  0  0  0  0  0
   -8.9723  -18.2122   14.8178 N   0  0  0  0  0  0  0  0  0  0  0  0
   -8.0627  -17.1444   12.8581 N   0  0  0  0  0  0  0  0  0  0  0  0
  -10.1584  -22.4857   11.4000 N   0  0  0  0  0  0  0  0  0  0  0  0
   -9.1027  -20.5168   11.9508 N   0  0  0  0  0  0  0  0  0  0  0  0
  -10.9423  -21.1900   13.1931 O   0  0  0  0  0  0  0  0  0  0  0  0
  -14.9273  -23.1319   12.6716 F   0  0  0  0  0  0  0  0  0  0  0  0
  -15.5282  -24.6920   11.2899 F   0  0  0  0  0  0  0  0  0  0  0  0
  -14.8972  -25.2119   13.3050 F   0  0  0  0  0  0  0  0  0  0  0  0
   -9.6045  -24.9877   10.5950 H   0  0  0  0  0  0  0  0  0  0  0  0
  -12.7203  -22.4601   12.1761 H   0  0  0  0  0  0  0  0  0  0  0  0
   -8.1808  -15.5208   15.6946 H   0  0  0  0  0  0  0  0  0  0  0  0
  -11.2461  -26.8618   10.6133 H   0  0  0  0  0  0  0  0  0  0  0  0
   -7.9956  -18.2135   11.0317 H   0  0  0  0  0  0  0  0  0  0  0  0
   -9.6266  -20.1455   14.5175 H   0  0  0  0  0  0  0  0  0  0  0  0
   -5.9099  -13.8224   13.7590 H   0  0  0  0  0  0  0  0  0  0  0  0
   -7.1279  -13.3755   12.5391 H   0  0  0  0  0  0  0  0  0  0  0  0
   -7.4948  -13.1766   14.2518 H   0  0  0  0  0  0  0  0  0  0  0  0
   -9.4308  -22.4935   10.6895 H   0  0  0  0  0  0  0  0  0  0  0  0
   -8.4941  -20.7566   11.1700 H   0  0  0  0  0  0  0  0  0  0  0  0
  1  4  2  0
  1  5  1  0
  2  5  2  0
  2  6  1  0
  3  7  1  0
  3  8  2  0
  4 15  1  0
  5 19  1  0
  6 14  1  0
  6 15  2  0
  7 13  1  0
  7 16  2  0
  8 17  1  0
  8 18  1  0
  9 11  2  0
  9 18  1  0
 10 11  1  0
 10 17  2  0
 11 20  1  0
 12 19  1  0
 12 20  1  0
 12 21  2  0
 14 22  1  0
 14 23  1  0
 14 24  1  0
 16 18  1  0
  1 25  1  0
  2 26  1  0
  3 27  1  0
  4 28  1  0
  9 29  1  0
 10 30  1  0
 13 31  1  0
 13 32  1  0
 13 33  1  0
 19 34  1  0
 20 35  1  0
M  END
>  <IC50 (nM)>  (10) 
13802.098

>  <IC50_operator>  (10) 
>

>  <Collaboration_Compound_ID>  (10) 
Pfizer-01-05

>  <experimental dG reference units>  (10) 
nM

>  <experimental dG reference field>  (10) 
IC50 (nM)

>  <kJ/mol experimental dG>  (10) 
-27.913535113550964

>  <kcal/mol experimental dG>  (10) 
-6.671495008018873

$$$$
Pfizer-01-13
     RDKit          3D

 32 34  0  0  0  0  0  0  0  0999 V2000
  -11.0391  -24.4820   10.6631 C   0  0  0  0  0  0  0  0  0  0  0  0
   -8.0366  -15.8081   14.8648 C   0  0  0  0  0  0  0  0  0  0  0  0
  -12.2504  -23.4708   12.4782 C   0  0  0  0  0  0  0  0  0  0  0  0
  -11.9778  -25.5010   10.6756 C   0  0  0  0  0  0  0  0  0  0  0  0
   -7.4287  -15.1819   13.7683 C   0  0  0  0  0  0  0  0  0  0  0  0
  -11.1851  -23.4513   11.5848 C   0  0  0  0  0  0  0  0  0  0  0  0
  -13.1350  -24.5350   12.4093 C   0  0  0  0  0  0  0  0  0  0  0  0
   -8.4129  -17.0476   14.3999 C   0  0  0  0  0  0  0  0  0  0  0  0
   -8.2505  -18.2369   12.2897 C   0  0  0  0  0  0  0  0  0  0  0  0
   -9.2500  -19.1418   14.2565 C   0  0  0  0  0  0  0  0  0  0  0  0
   -8.8655  -19.2950   12.8287 C   0  0  0  0  0  0  0  0  0  0  0  0
  -10.2422  -21.2775   12.4652 C   0  0  0  0  0  0  0  0  0  0  0  0
  -14.2890  -24.5891   13.3545 C   0  0  0  0  0  0  0  0  0  0  0  0
  -13.0257  -25.5543   11.5280 N   0  0  0  0  0  0  0  0  0  0  0  0
   -7.4087  -15.9482   12.6784 N   0  0  0  0  0  0  0  0  0  0  0  0
   -9.0442  -18.0969   15.0012 N   0  0  0  0  0  0  0  0  0  0  0  0
   -8.0152  -17.1019   13.0624 N   0  0  0  0  0  0  0  0  0  0  0  0
  -10.2525  -22.3883   11.6145 N   0  0  0  0  0  0  0  0  0  0  0  0
   -9.1453  -20.4499   12.1729 N   0  0  0  0  0  0  0  0  0  0  0  0
  -11.0582  -21.0294   13.3503 O   0  0  0  0  0  0  0  0  0  0  0  0
  -14.3386  -23.5318   14.2172 F   0  0  0  0  0  0  0  0  0  0  0  0
  -15.5041  -24.5991   12.7318 F   0  0  0  0  0  0  0  0  0  0  0  0
  -14.2702  -25.7039   14.1409 F   0  0  0  0  0  0  0  0  0  0  0  0
  -10.2199  -24.4978    9.9520 H   0  0  0  0  0  0  0  0  0  0  0  0
   -8.1853  -15.4179   15.8611 H   0  0  0  0  0  0  0  0  0  0  0  0
  -12.3844  -22.6776   13.2076 H   0  0  0  0  0  0  0  0  0  0  0  0
  -11.9090  -26.3290    9.9777 H   0  0  0  0  0  0  0  0  0  0  0  0
   -6.9959  -14.1933   13.7159 H   0  0  0  0  0  0  0  0  0  0  0  0
   -7.9143  -18.2074   11.2597 H   0  0  0  0  0  0  0  0  0  0  0  0
   -9.7581  -20.0101   14.7087 H   0  0  0  0  0  0  0  0  0  0  0  0
   -9.4977  -22.4372   10.9347 H   0  0  0  0  0  0  0  0  0  0  0  0
   -8.5153  -20.7277   11.4222 H   0  0  0  0  0  0  0  0  0  0  0  0
  1  4  2  0
  1  6  1  0
  2  5  1  0
  2  8  2  0
  3  6  2  0
  3  7  1  0
  4 14  1  0
  5 15  2  0
  6 18  1  0
  7 13  1  0
  7 14  2  0
  8 16  1  0
  8 17  1  0
  9 11  2  0
  9 17  1  0
 10 11  1  0
 10 16  2  0
 11 19  1  0
 12 18  1  0
 12 19  1  0
 12 20  2  0
 13 21  1  0
 13 22  1  0
 13 23  1  0
 15 17  1  0
  1 24  1  0
  2 25  1  0
  3 26  1  0
  4 27  1  0
  5 28  1  0
  9 29  1  0
 10 30  1  0
 18 31  1  0
 19 32  1  0
M  END
>  <IC50 (nM)>  (11) 
20000.0

>  <IC50_operator>  (11) 
>

>  <Collaboration_Compound_ID>  (11) 
Pfizer-01-13

>  <experimental dG reference units>  (11) 
nM

>  <experimental dG reference field>  (11) 
IC50 (nM)

>  <kJ/mol experimental dG>  (11) 
-26.98835035695819

>  <kcal/mol experimental dG>  (11) 
-6.450370544206068

$$$$
2714550-01-1
     RDKit          3D

 41 43  0  0  0  0  0  0  0  0999 V2000
  -10.6045  -24.7922   10.8855 C   0  0  0  0  0  0  0  0  0  0  0  0
  -12.2818  -23.4722   11.9871 C   0  0  0  0  0  0  0  0  0  0  0  0
   -8.0603  -15.8195   14.6590 C   0  0  0  0  0  0  0  0  0  0  0  0
  -11.5681  -25.7690   10.7074 C   0  0  0  0  0  0  0  0  0  0  0  0
  -10.9669  -23.6223   11.5516 C   0  0  0  0  0  0  0  0  0  0  0  0
  -13.1831  -24.5072   11.7611 C   0  0  0  0  0  0  0  0  0  0  0  0
   -7.6651  -15.1567   13.4959 C   0  0  0  0  0  0  0  0  0  0  0  0
   -8.3502  -17.0991   14.2449 C   0  0  0  0  0  0  0  0  0  0  0  0
   -8.9877  -19.2540   14.2437 C   0  0  0  0  0  0  0  0  0  0  0  0
   -8.7260  -19.4339   12.7880 C   0  0  0  0  0  0  0  0  0  0  0  0
   -8.2548  -18.3519   12.1316 C   0  0  0  0  0  0  0  0  0  0  0  0
  -10.0703  -21.4616   12.4635 C   0  0  0  0  0  0  0  0  0  0  0  0
   -9.1712  -17.6874    9.8645 C   0  0  0  0  0  0  0  0  0  0  0  0
   -6.6545  -17.8430   10.1750 C   0  0  0  0  0  0  0  0  0  0  0  0
   -8.0212  -18.3623   10.6179 C   0  0  0  0  0  0  0  0  0  0  0  0
  -14.6079  -24.3810   12.2027 C   0  0  0  0  0  0  0  0  0  0  0  0
  -12.8451  -25.6561   11.1297 N   0  0  0  0  0  0  0  0  0  0  0  0
   -7.6849  -15.9348   12.4177 N   0  0  0  0  0  0  0  0  0  0  0  0
   -8.8084  -18.1745   14.9365 N   0  0  0  0  0  0  0  0  0  0  0  0
   -8.0833  -17.1568   12.8695 N   0  0  0  0  0  0  0  0  0  0  0  0
   -9.9712  -22.6405   11.7202 N   0  0  0  0  0  0  0  0  0  0  0  0
   -8.9662  -20.6481   12.2003 N   0  0  0  0  0  0  0  0  0  0  0  0
  -10.9979  -21.1417   13.2027 O   0  0  0  0  0  0  0  0  0  0  0  0
  -14.8695  -23.2546   12.9216 F   0  0  0  0  0  0  0  0  0  0  0  0
  -15.4715  -24.3593   11.1518 F   0  0  0  0  0  0  0  0  0  0  0  0
  -14.9960  -25.4199   12.9907 F   0  0  0  0  0  0  0  0  0  0  0  0
   -7.2060  -13.5293   13.3885 Cl  0  0  0  0  0  0  0  0  0  0  0  0
   -9.5954  -24.9484   10.5176 H   0  0  0  0  0  0  0  0  0  0  0  0
  -12.6307  -22.5711   12.4748 H   0  0  0  0  0  0  0  0  0  0  0  0
   -8.1431  -15.4356   15.6661 H   0  0  0  0  0  0  0  0  0  0  0  0
  -11.3279  -26.6986   10.2029 H   0  0  0  0  0  0  0  0  0  0  0  0
   -9.3357  -20.1474   14.7868 H   0  0  0  0  0  0  0  0  0  0  0  0
   -9.2446  -16.6191   10.0846 H   0  0  0  0  0  0  0  0  0  0  0  0
  -10.1297  -18.1550   10.1217 H   0  0  0  0  0  0  0  0  0  0  0  0
   -9.0371  -17.8012    8.7828 H   0  0  0  0  0  0  0  0  0  0  0  0
   -6.5278  -16.7727   10.3489 H   0  0  0  0  0  0  0  0  0  0  0  0
   -6.5220  -18.0105    9.1002 H   0  0  0  0  0  0  0  0  0  0  0  0
   -5.8537  -18.3803   10.6940 H   0  0  0  0  0  0  0  0  0  0  0  0
   -8.0288  -19.3966   10.2593 H   0  0  0  0  0  0  0  0  0  0  0  0
   -9.0743  -22.8294   11.2799 H   0  0  0  0  0  0  0  0  0  0  0  0
   -8.4310  -20.8877   11.3731 H   0  0  0  0  0  0  0  0  0  0  0  0
  1  4  2  0
  1  5  1  0
  2  5  2  0
  2  6  1  0
  3  7  1  0
  3  8  2  0
  4 17  1  0
  5 21  1  0
  6 16  1  0
  6 17  2  0
  7 18  2  0
  7 27  1  0
  8 19  1  0
  8 20  1  0
  9 10  1  0
  9 19  2  0
 10 11  2  0
 10 22  1  0
 11 15  1  0
 11 20  1  0
 12 21  1  0
 12 22  1  0
 12 23  2  0
 13 15  1  0
 14 15  1  0
 16 24  1  0
 16 25  1  0
 16 26  1  0
 18 20  1  0
  1 28  1  0
  2 29  1  0
  3 30  1  0
  4 31  1  0
  9 32  1  0
 13 33  1  0
 13 34  1  0
 13 35  1  0
 14 36  1  0
 14 37  1  0
 14 38  1  0
 15 39  1  0
 21 40  1  0
 22 41  1  0
M  END
>  <IC50 (nM)>  (12) 
407.4587

>  <IC50_operator>  (12) 
=

>  <Collaboration_Compound_ID>  (12) 
2714550-01-1

>  <experimental dG reference units>  (12) 
nM

>  <experimental dG reference field>  (12) 
IC50 (nM)

>  <kJ/mol experimental dG>  (12) 
-36.700234843890875

>  <kcal/mol experimental dG>  (12) 
-8.771566645289406

$$$$
1832577-09-9
     RDKit          3D

 42 44  0  0  1  0  0  0  0  0999 V2000
  -10.5334  -24.7004   10.8465 C   0  0  0  0  0  0  0  0  0  0  0  0
  -12.2375  -23.4317   11.9659 C   0  0  0  0  0  0  0  0  0  0  0  0
   -8.0781  -15.7676   14.8202 C   0  0  0  0  0  0  0  0  0  0  0  0
  -11.4686  -25.7088   10.6839 C   0  0  0  0  0  0  0  0  0  0  0  0
  -10.9226  -23.5382   11.5125 C   0  0  0  0  0  0  0  0  0  0  0  0
  -13.1112  -24.4951   11.7511 C   0  0  0  0  0  0  0  0  0  0  0  0
   -7.6176  -15.0858   13.6901 C   0  0  0  0  0  0  0  0  0  0  0  0
   -8.3276  -17.0469   14.3752 C   0  0  0  0  0  0  0  0  0  0  0  0
   -8.9990  -19.1925   14.2702 C   0  0  0  0  0  0  0  0  0  0  0  0
   -8.7389  -19.3130   12.8049 C   0  0  0  0  0  0  0  0  0  0  0  0
   -8.1967  -18.2212   12.2237 C   0  0  0  0  0  0  0  0  0  0  0  0
  -10.0695  -21.3590   12.4332 C   0  0  0  0  0  0  0  0  0  0  0  0
   -6.6229  -18.7823   10.3075 C   0  0  0  0  0  0  0  0  0  0  0  0
   -9.4574  -17.7523    8.9592 C   0  0  0  0  0  0  0  0  0  0  0  0
   -7.9112  -18.0842   10.7331 C   0  0  1  0  0  0  0  0  0  0  0  0
  -14.5419  -24.4050   12.1861 C   0  0  0  0  0  0  0  0  0  0  0  0
  -12.7444  -25.6344   11.1183 N   0  0  0  0  0  0  0  0  0  0  0  0
   -7.5397  -15.8574   12.6119 N   0  0  0  0  0  0  0  0  0  0  0  0
   -8.8095  -18.1459   15.0128 N   0  0  0  0  0  0  0  0  0  0  0  0
   -8.0014  -17.0717   13.0171 N   0  0  0  0  0  0  0  0  0  0  0  0
   -9.9582  -22.5164   11.6556 N   0  0  0  0  0  0  0  0  0  0  0  0
   -9.0189  -20.4821   12.1403 N   0  0  0  0  0  0  0  0  0  0  0  0
  -10.9683  -21.1116   13.2336 O   0  0  0  0  0  0  0  0  0  0  0  0
   -9.0133  -18.6233    9.9903 O   0  0  0  0  0  0  0  0  0  0  0  0
  -14.8129  -23.3365   12.9853 F   0  0  0  0  0  0  0  0  0  0  0  0
  -15.3944  -24.3052   11.1299 F   0  0  0  0  0  0  0  0  0  0  0  0
  -14.9390  -25.5006   12.8886 F   0  0  0  0  0  0  0  0  0  0  0  0
   -7.1927  -13.4497   13.6054 Cl  0  0  0  0  0  0  0  0  0  0  0  0
   -9.5246  -24.8290   10.4673 H   0  0  0  0  0  0  0  0  0  0  0  0
  -12.6096  -22.5382   12.4512 H   0  0  0  0  0  0  0  0  0  0  0  0
   -8.2318  -15.3930   15.8221 H   0  0  0  0  0  0  0  0  0  0  0  0
  -11.2061  -26.6332   10.1807 H   0  0  0  0  0  0  0  0  0  0  0  0
   -9.3567  -20.1035   14.7754 H   0  0  0  0  0  0  0  0  0  0  0  0
   -6.6919  -19.8701   10.4066 H   0  0  0  0  0  0  0  0  0  0  0  0
   -5.7650  -18.4293   10.8885 H   0  0  0  0  0  0  0  0  0  0  0  0
   -6.4262  -18.5845    9.2476 H   0  0  0  0  0  0  0  0  0  0  0  0
  -10.2928  -18.2284    8.4403 H   0  0  0  0  0  0  0  0  0  0  0  0
   -8.6511  -17.5717    8.2429 H   0  0  0  0  0  0  0  0  0  0  0  0
   -9.8072  -16.8053    9.3830 H   0  0  0  0  0  0  0  0  0  0  0  0
   -7.8052  -17.0236   10.4761 H   0  0  0  0  0  0  0  0  0  0  0  0
   -9.0700  -22.6660   11.1835 H   0  0  0  0  0  0  0  0  0  0  0  0
   -8.5590  -20.6256   11.2464 H   0  0  0  0  0  0  0  0  0  0  0  0
  1  4  2  0
  1  5  1  0
  2  5  2  0
  2  6  1  0
  3  7  1  0
  3  8  2  0
  4 17  1  0
  5 21  1  0
  6 16  1  0
  6 17  2  0
  7 18  2  0
  7 28  1  0
  8 19  1  0
  8 20  1  0
  9 10  1  0
  9 19  2  0
 10 11  2  0
 10 22  1  0
 11 15  1  0
 11 20  1  0
 12 21  1  0
 12 22  1  0
 12 23  2  0
 13 15  1  0
 14 24  1  0
 15 24  1  0
 16 25  1  0
 16 26  1  0
 16 27  1  0
 18 20  1  0
  1 29  1  0
  2 30  1  0
  3 31  1  0
  4 32  1  0
  9 33  1  0
 13 34  1  0
 13 35  1  0
 13 36  1  0
 14 37  1  0
 14 38  1  0
 14 39  1  0
 15 40  1  6
 21 41  1  0
 22 42  1  0
M  END
>  <IC50 (nM)>  (13) 
778.82434

>  <IC50_operator>  (13) 
=

>  <Collaboration_Compound_ID>  (13) 
1832577-09-9

>  <experimental dG reference units>  (13) 
nM

>  <experimental dG reference field>  (13) 
IC50 (nM)

>  <kJ/mol experimental dG>  (13) 
-35.08427812349376

>  <kcal/mol experimental dG>  (13) 
-8.385343719764283

$$$$
Pfizer-01-02
     RDKit          3D

 44 46  0  0  0  0  0  0  0  0999 V2000
  -10.5088  -24.7628   10.8721 C   0  0  0  0  0  0  0  0  0  0  0  0
  -12.2398  -23.4990   11.9592 C   0  0  0  0  0  0  0  0  0  0  0  0
   -8.0597  -15.7807   14.6794 C   0  0  0  0  0  0  0  0  0  0  0  0
  -11.4382  -25.7670   10.6710 C   0  0  0  0  0  0  0  0  0  0  0  0
  -10.9156  -23.6074   11.5399 C   0  0  0  0  0  0  0  0  0  0  0  0
  -13.1049  -24.5600   11.7049 C   0  0  0  0  0  0  0  0  0  0  0  0
   -7.6432  -15.1014   13.5245 C   0  0  0  0  0  0  0  0  0  0  0  0
   -8.3480  -17.0576   14.2599 C   0  0  0  0  0  0  0  0  0  0  0  0
   -9.0061  -19.2066   14.2411 C   0  0  0  0  0  0  0  0  0  0  0  0
   -8.7352  -19.3800   12.7863 C   0  0  0  0  0  0  0  0  0  0  0  0
   -8.2351  -18.3008   12.1447 C   0  0  0  0  0  0  0  0  0  0  0  0
  -10.0746  -21.4220   12.4577 C   0  0  0  0  0  0  0  0  0  0  0  0
   -7.2356  -13.6851   13.3994 C   0  0  0  0  0  0  0  0  0  0  0  0
   -9.1588  -17.7295    9.8642 C   0  0  0  0  0  0  0  0  0  0  0  0
   -6.6475  -17.6805   10.1937 C   0  0  0  0  0  0  0  0  0  0  0  0
   -7.9693  -18.3086   10.6357 C   0  0  0  0  0  0  0  0  0  0  0  0
  -14.5397  -24.4628   12.1195 C   0  0  0  0  0  0  0  0  0  0  0  0
  -12.7235  -25.6935   11.0710 N   0  0  0  0  0  0  0  0  0  0  0  0
   -7.6519  -15.8903   12.4488 N   0  0  0  0  0  0  0  0  0  0  0  0
   -8.8199  -18.1333   14.9419 N   0  0  0  0  0  0  0  0  0  0  0  0
   -8.0631  -17.1104   12.8905 N   0  0  0  0  0  0  0  0  0  0  0  0
   -9.9479  -22.6002   11.7174 N   0  0  0  0  0  0  0  0  0  0  0  0
   -8.9870  -20.5866   12.1863 N   0  0  0  0  0  0  0  0  0  0  0  0
  -11.0075  -21.1241   13.1987 O   0  0  0  0  0  0  0  0  0  0  0  0
  -14.6893  -24.1931   13.4449 F   0  0  0  0  0  0  0  0  0  0  0  0
  -15.2110  -23.4827   11.4557 F   0  0  0  0  0  0  0  0  0  0  0  0
  -15.2337  -25.6108   11.8918 F   0  0  0  0  0  0  0  0  0  0  0  0
   -9.4902  -24.8865   10.5182 H   0  0  0  0  0  0  0  0  0  0  0  0
  -12.6272  -22.6152   12.4512 H   0  0  0  0  0  0  0  0  0  0  0  0
   -8.1564  -15.3978   15.6856 H   0  0  0  0  0  0  0  0  0  0  0  0
  -11.1626  -26.6852   10.1644 H   0  0  0  0  0  0  0  0  0  0  0  0
   -9.3657  -20.0997   14.7768 H   0  0  0  0  0  0  0  0  0  0  0  0
   -6.2199  -13.6095   12.9983 H   0  0  0  0  0  0  0  0  0  0  0  0
   -7.9151  -13.1498   12.7284 H   0  0  0  0  0  0  0  0  0  0  0  0
   -7.2537  -13.1806   14.3709 H   0  0  0  0  0  0  0  0  0  0  0  0
   -9.3139  -16.6689   10.0827 H   0  0  0  0  0  0  0  0  0  0  0  0
  -10.0829  -18.2654   10.1127 H   0  0  0  0  0  0  0  0  0  0  0  0
   -9.0033  -17.8338    8.7847 H   0  0  0  0  0  0  0  0  0  0  0  0
   -6.6650  -16.5887   10.2341 H   0  0  0  0  0  0  0  0  0  0  0  0
   -6.4387  -17.9541    9.1529 H   0  0  0  0  0  0  0  0  0  0  0  0
   -5.8162  -18.0461   10.8051 H   0  0  0  0  0  0  0  0  0  0  0  0
   -7.8804  -19.3458   10.2962 H   0  0  0  0  0  0  0  0  0  0  0  0
   -9.0436  -22.7681   11.2835 H   0  0  0  0  0  0  0  0  0  0  0  0
   -8.4648  -20.8142   11.3478 H   0  0  0  0  0  0  0  0  0  0  0  0
  1  4  2  0
  1  5  1  0
  2  5  2  0
  2  6  1  0
  3  7  1  0
  3  8  2  0
  4 18  1  0
  5 22  1  0
  6 17  1  0
  6 18  2  0
  7 13  1  0
  7 19  2  0
  8 20  1  0
  8 21  1  0
  9 10  1  0
  9 20  2  0
 10 11  2  0
 10 23  1  0
 11 16  1  0
 11 21  1  0
 12 22  1  0
 12 23  1  0
 12 24  2  0
 14 16  1  0
 15 16  1  0
 17 25  1  0
 17 26  1  0
 17 27  1  0
 19 21  1  0
  1 28  1  0
  2 29  1  0
  3 30  1  0
  4 31  1  0
  9 32  1  0
 13 33  1  0
 13 34  1  0
 13 35  1  0
 14 36  1  0
 14 37  1  0
 14 38  1  0
 15 39  1  0
 15 40  1  0
 15 41  1  0
 16 42  1  0
 22 43  1  0
 23 44  1  0
M  END
>  <IC50 (nM)>  (14) 
557.5762

>  <IC50_operator>  (14) 
=

>  <Collaboration_Compound_ID>  (14) 
Pfizer-01-02

>  <experimental dG reference units>  (14) 
nM

>  <experimental dG reference field>  (14) 
IC50 (nM)

>  <kJ/mol experimental dG>  (14) 
-35.917856971204856

>  <kcal/mol experimental dG>  (14) 
-8.584573845890262

$$$$
Pfizer-01-08
     RDKit          3D

 42 44  0  0  0  0  0  0  0  0999 V2000
  -10.6499  -24.7513   10.9159 C   0  0  0  0  0  0  0  0  0  0  0  0
  -12.2582  -23.3229   11.9916 C   0  0  0  0  0  0  0  0  0  0  0  0
   -8.0880  -15.7265   14.6397 C   0  0  0  0  0  0  0  0  0  0  0  0
  -11.6687  -25.6732   10.7369 C   0  0  0  0  0  0  0  0  0  0  0  0
  -10.9585  -23.5563   11.5561 C   0  0  0  0  0  0  0  0  0  0  0  0
  -13.2051  -24.3086   11.7643 C   0  0  0  0  0  0  0  0  0  0  0  0
   -7.6587  -15.1174   13.4538 C   0  0  0  0  0  0  0  0  0  0  0  0
   -8.3448  -17.0334   14.2931 C   0  0  0  0  0  0  0  0  0  0  0  0
   -8.9245  -19.2139   14.3703 C   0  0  0  0  0  0  0  0  0  0  0  0
   -8.6504  -19.4332   12.9256 C   0  0  0  0  0  0  0  0  0  0  0  0
   -8.2187  -18.3578   12.2512 C   0  0  0  0  0  0  0  0  0  0  0  0
  -10.0816  -21.3352   12.3850 C   0  0  0  0  0  0  0  0  0  0  0  0
   -7.2535  -13.7140   13.2632 C   0  0  0  0  0  0  0  0  0  0  0  0
   -8.5626  -17.4888    8.8092 C   0  0  0  0  0  0  0  0  0  0  0  0
   -9.0407  -18.1292   10.0949 C   0  0  0  0  0  0  0  0  0  0  0  0
  -14.6098  -24.0922   12.2202 C   0  0  0  0  0  0  0  0  0  0  0  0
  -12.9429  -25.4819   11.1461 N   0  0  0  0  0  0  0  0  0  0  0  0
   -7.6383  -15.9552   12.4185 N   0  0  0  0  0  0  0  0  0  0  0  0
   -8.7856  -18.0985   15.0207 N   0  0  0  0  0  0  0  0  0  0  0  0
   -8.0609  -17.1430   12.9298 N   0  0  0  0  0  0  0  0  0  0  0  0
   -9.9537  -22.5830   11.7649 N   0  0  0  0  0  0  0  0  0  0  0  0
   -8.8465  -20.6677   12.3924 N   0  0  0  0  0  0  0  0  0  0  0  0
  -11.1093  -20.8609   12.8639 O   0  0  0  0  0  0  0  0  0  0  0  0
   -7.9271  -18.4213   10.9030 O   0  0  0  0  0  0  0  0  0  0  0  0
  -14.8048  -22.8899   12.8374 F   0  0  0  0  0  0  0  0  0  0  0  0
  -15.5236  -24.1254   11.2062 F   0  0  0  0  0  0  0  0  0  0  0  0
  -15.0210  -25.0356   13.1161 F   0  0  0  0  0  0  0  0  0  0  0  0
   -9.6465  -24.9656   10.5634 H   0  0  0  0  0  0  0  0  0  0  0  0
  -12.5227  -22.3977   12.4948 H   0  0  0  0  0  0  0  0  0  0  0  0
   -8.1994  -15.2858   15.6202 H   0  0  0  0  0  0  0  0  0  0  0  0
  -11.4805  -26.6213   10.2440 H   0  0  0  0  0  0  0  0  0  0  0  0
   -9.2797  -20.0975   14.9270 H   0  0  0  0  0  0  0  0  0  0  0  0
   -6.1714  -13.5830   13.4347 H   0  0  0  0  0  0  0  0  0  0  0  0
   -7.4751  -13.3509   12.2439 H   0  0  0  0  0  0  0  0  0  0  0  0
   -7.7842  -13.0302   13.9494 H   0  0  0  0  0  0  0  0  0  0  0  0
   -8.0257  -16.5582    9.0130 H   0  0  0  0  0  0  0  0  0  0  0  0
   -7.8991  -18.1675    8.2633 H   0  0  0  0  0  0  0  0  0  0  0  0
   -9.4085  -17.2712    8.1488 H   0  0  0  0  0  0  0  0  0  0  0  0
   -9.5768  -19.0594    9.8840 H   0  0  0  0  0  0  0  0  0  0  0  0
   -9.7028  -17.4495   10.6394 H   0  0  0  0  0  0  0  0  0  0  0  0
   -9.0256  -22.8187   11.4228 H   0  0  0  0  0  0  0  0  0  0  0  0
   -8.0416  -21.1296   11.9742 H   0  0  0  0  0  0  0  0  0  0  0  0
  1  4  2  0
  1  5  1  0
  2  5  2  0
  2  6  1  0
  3  7  1  0
  3  8  2  0
  4 17  1  0
  5 21  1  0
  6 16  1  0
  6 17  2  0
  7 13  1  0
  7 18  2  0
  8 19  1  0
  8 20  1  0
  9 10  1  0
  9 19  2  0
 10 11  2  0
 10 22  1  0
 11 20  1  0
 11 24  1  0
 12 21  1  0
 12 22  1  0
 12 23  2  0
 14 15  1  0
 15 24  1  0
 16 25  1  0
 16 26  1  0
 16 27  1  0
 18 20  1  0
  1 28  1  0
  2 29  1  0
  3 30  1  0
  4 31  1  0
  9 32  1  0
 13 33  1  0
 13 34  1  0
 13 35  1  0
 14 36  1  0
 14 37  1  0
 14 38  1  0
 15 39  1  0
 15 40  1  0
 21 41  1  0
 22 42  1  0
M  END
>  <IC50 (nM)>  (15) 
20000.0

>  <IC50_operator>  (15) 
>

>  <Collaboration_Compound_ID>  (15) 
Pfizer-01-08

>  <experimental dG reference units>  (15) 
nM

>  <experimental dG reference field>  (15) 
IC50 (nM)

>  <kJ/mol experimental dG>  (15) 
-26.98835035695819

>  <kcal/mol experimental dG>  (15) 
-6.450370544206068

$$$$
Pfizer-01-12
     RDKit          3D

 36 38  0  0  0  0  0  0  0  0999 V2000
  -10.6396  -24.6631   10.8793 C   0  0  0  0  0  0  0  0  0  0  0  0
  -12.2241  -23.2646   12.0273 C   0  0  0  0  0  0  0  0  0  0  0  0
  -11.6519  -25.5978   10.7332 C   0  0  0  0  0  0  0  0  0  0  0  0
   -8.0292  -15.5758   14.4857 C   0  0  0  0  0  0  0  0  0  0  0  0
   -7.6914  -15.7886   12.3914 C   0  0  0  0  0  0  0  0  0  0  0  0
  -10.9393  -23.4769   11.5399 C   0  0  0  0  0  0  0  0  0  0  0  0
   -8.2958  -16.8931   14.2000 C   0  0  0  0  0  0  0  0  0  0  0  0
  -13.1655  -24.2618   11.8297 C   0  0  0  0  0  0  0  0  0  0  0  0
   -8.7082  -18.0319   14.9320 C   0  0  0  0  0  0  0  0  0  0  0  0
   -8.8713  -19.2004   14.2866 C   0  0  0  0  0  0  0  0  0  0  0  0
   -8.6361  -19.3315   12.8490 C   0  0  0  0  0  0  0  0  0  0  0  0
   -8.2409  -18.2483   12.1350 C   0  0  0  0  0  0  0  0  0  0  0  0
  -10.0611  -21.2495   12.3505 C   0  0  0  0  0  0  0  0  0  0  0  0
   -7.9643  -18.2415   10.6547 C   0  0  0  0  0  0  0  0  0  0  0  0
  -14.5543  -24.0683   12.3415 C   0  0  0  0  0  0  0  0  0  0  0  0
   -7.6544  -14.8964   13.3571 N   0  0  0  0  0  0  0  0  0  0  0  0
  -12.9117  -25.4271   11.1931 N   0  0  0  0  0  0  0  0  0  0  0  0
   -8.0766  -17.0341   12.8366 N   0  0  0  0  0  0  0  0  0  0  0  0
   -9.9406  -22.4911   11.7167 N   0  0  0  0  0  0  0  0  0  0  0  0
   -8.8372  -20.5722   12.3116 N   0  0  0  0  0  0  0  0  0  0  0  0
  -11.0758  -20.7929   12.8725 O   0  0  0  0  0  0  0  0  0  0  0  0
  -14.7415  -22.8730   12.9747 F   0  0  0  0  0  0  0  0  0  0  0  0
  -15.5064  -24.1072   11.3636 F   0  0  0  0  0  0  0  0  0  0  0  0
  -14.9173  -25.0234   13.2457 F   0  0  0  0  0  0  0  0  0  0  0  0
   -9.6478  -24.8609   10.4865 H   0  0  0  0  0  0  0  0  0  0  0  0
  -12.4814  -22.3467   12.5473 H   0  0  0  0  0  0  0  0  0  0  0  0
  -11.4701  -26.5398   10.2264 H   0  0  0  0  0  0  0  0  0  0  0  0
   -8.0873  -15.0808   15.4445 H   0  0  0  0  0  0  0  0  0  0  0  0
   -7.4505  -15.5902   11.3556 H   0  0  0  0  0  0  0  0  0  0  0  0
   -8.8878  -17.9551   15.9987 H   0  0  0  0  0  0  0  0  0  0  0  0
   -9.1875  -20.0787   14.8419 H   0  0  0  0  0  0  0  0  0  0  0  0
   -8.8794  -18.0022   10.1217 H   0  0  0  0  0  0  0  0  0  0  0  0
   -7.6070  -19.2218   10.3533 H   0  0  0  0  0  0  0  0  0  0  0  0
   -7.2044  -17.4970   10.4369 H   0  0  0  0  0  0  0  0  0  0  0  0
   -9.0233  -22.7115   11.3370 H   0  0  0  0  0  0  0  0  0  0  0  0
   -8.0418  -21.0127   11.8622 H   0  0  0  0  0  0  0  0  0  0  0  0
  1  3  2  0
  1  6  1  0
  2  6  2  0
  2  8  1  0
  3 17  1  0
  4  7  2  0
  4 16  1  0
  5 16  2  0
  5 18  1  0
  6 19  1  0
  7  9  1  0
  7 18  1  0
  8 15  1  0
  8 17  2  0
  9 10  2  0
 10 11  1  0
 11 12  2  0
 11 20  1  0
 12 14  1  0
 12 18  1  0
 13 19  1  0
 13 20  1  0
 13 21  2  0
 15 22  1  0
 15 23  1  0
 15 24  1  0
  1 25  1  0
  2 26  1  0
  3 27  1  0
  4 28  1  0
  5 29  1  0
  9 30  1  0
 10 31  1  0
 14 32  1  0
 14 33  1  0
 14 34  1  0
 19 35  1  0
 20 36  1  0
M  END
>  <IC50 (nM)>  (16) 
20000.0

>  <IC50_operator>  (16) 
>

>  <Collaboration_Compound_ID>  (16) 
Pfizer-01-12

>  <experimental dG reference units>  (16) 
nM

>  <experimental dG reference field>  (16) 
IC50 (nM)

>  <kJ/mol experimental dG>  (16) 
-26.98835035695819

>  <kcal/mol experimental dG>  (16) 
-6.450370544206068

$$$$
