CHEMBL1078774
     RDKit          3D

 52 55  0  0  0  0  0  0  0  0999 V2000
   12.8146    0.8080    0.0689 C   0  0  0  0  0  0  0  0  0  0  0  0
   11.9194   -0.1474   -0.7542 C   0  0  0  0  0  0  0  0  0  0  0  0
   10.4685    0.3660   -0.7781 C   0  0  0  0  0  0  0  0  0  0  0  0
   12.4753   -0.2208   -2.1781 C   0  0  0  0  0  0  0  0  0  0  0  0
   11.8886   -1.5790   -0.1851 C   0  0  0  0  0  0  0  0  0  0  0  0
   10.8516   -2.4541   -0.5469 C   0  0  0  0  0  0  0  0  0  0  0  0
   10.7947   -3.7435   -0.0550 C   0  0  0  0  0  0  0  0  0  0  0  0
   11.8117   -4.2036    0.7644 C   0  0  0  0  0  0  0  0  0  0  0  0
   12.8807   -3.3692    1.1329 C   0  0  0  0  0  0  0  0  0  0  0  0
   12.8820   -2.0552    0.6763 C   0  0  0  0  0  0  0  0  0  0  0  0
   14.0286   -3.8741    1.9864 C   0  0  1  0  0  0  0  0  0  0  0  0
   13.8076   -3.4485    3.3326 O   0  0  0  0  0  0  0  0  0  0  0  0
   14.8758   -3.7894    4.2165 C   0  0  0  0  0  0  0  0  0  0  0  0
   15.0715   -5.3181    4.2567 C   0  0  0  0  0  0  0  0  0  0  0  0
   15.2314   -5.9009    2.8436 C   0  0  0  0  0  0  0  0  0  0  0  0
   14.1181   -5.4079    1.8901 C   0  0  1  0  0  0  0  0  0  0  0  0
   12.7185   -6.0488    2.1265 C   0  0  2  0  0  0  0  0  0  0  0  0
   12.7612   -7.5479    2.0351 C   0  0  0  0  0  0  0  0  0  0  0  0
   13.2453   -8.1893    0.8854 C   0  0  0  0  0  0  0  0  0  0  0  0
   13.3212   -9.5776    0.8297 C   0  0  0  0  0  0  0  0  0  0  0  0
   12.9274  -10.3120    1.9477 C   0  0  0  0  0  0  0  0  0  0  0  0
   12.9755  -11.6650    2.0910 O   0  0  0  0  0  0  0  0  0  0  0  0
   12.4304   -9.6686    3.0444 C   0  0  0  0  0  0  0  0  0  0  0  0
   12.0577  -10.4439    4.0695 F   0  0  0  0  0  0  0  0  0  0  0  0
   12.3226   -8.3021    3.1210 C   0  0  0  0  0  0  0  0  0  0  0  0
   11.7434   -5.5361    1.1782 N   0  0  0  0  0  0  0  0  0  0  0  0
   12.5325    0.8833    1.1150 H   0  0  0  0  0  0  0  0  0  0  0  0
   12.8684    1.8169   -0.3389 H   0  0  0  0  0  0  0  0  0  0  0  0
   13.8143    0.4106    0.0939 H   0  0  0  0  0  0  0  0  0  0  0  0
   10.1312    0.3291    0.2282 H   0  0  0  0  0  0  0  0  0  0  0  0
    9.7854   -0.1994   -1.3984 H   0  0  0  0  0  0  0  0  0  0  0  0
   10.2936    1.3645   -1.1331 H   0  0  0  0  0  0  0  0  0  0  0  0
   13.4726   -0.6589   -2.2247 H   0  0  0  0  0  0  0  0  0  0  0  0
   12.5251    0.7329   -2.6948 H   0  0  0  0  0  0  0  0  0  0  0  0
   11.7885   -0.8617   -2.7053 H   0  0  0  0  0  0  0  0  0  0  0  0
   10.0577   -2.1640   -1.2118 H   0  0  0  0  0  0  0  0  0  0  0  0
    9.9636   -4.3765   -0.3287 H   0  0  0  0  0  0  0  0  0  0  0  0
   13.7110   -1.4397    0.9847 H   0  0  0  0  0  0  0  0  0  0  0  0
   14.9568   -3.4397    1.6082 H   0  0  0  0  0  0  0  0  0  0  0  0
   15.7982   -3.3159    3.8733 H   0  0  0  0  0  0  0  0  0  0  0  0
   14.6645   -3.3991    5.2118 H   0  0  0  0  0  0  0  0  0  0  0  0
   15.9448   -5.5693    4.8582 H   0  0  0  0  0  0  0  0  0  0  0  0
   14.2132   -5.7780    4.7478 H   0  0  0  0  0  0  0  0  0  0  0  0
   16.2000   -5.6073    2.4333 H   0  0  0  0  0  0  0  0  0  0  0  0
   15.2545   -6.9886    2.8964 H   0  0  0  0  0  0  0  0  0  0  0  0
   14.4360   -5.6292    0.8705 H   0  0  0  0  0  0  0  0  0  0  0  0
   12.3626   -5.7833    3.1259 H   0  0  0  0  0  0  0  0  0  0  0  0
   13.5633   -7.5865    0.0421 H   0  0  0  0  0  0  0  0  0  0  0  0
   13.6945  -10.0446   -0.0712 H   0  0  0  0  0  0  0  0  0  0  0  0
   13.1617  -12.2032    1.3104 H   0  0  0  0  0  0  0  0  0  0  0  0
   11.9305   -7.8479    4.0169 H   0  0  0  0  0  0  0  0  0  0  0  0
   10.8870   -6.0695    1.1050 H   0  0  0  0  0  0  0  0  0  0  0  0
  1  2  1  0
  1 27  1  0
  1 28  1  0
  1 29  1  0
  2  3  1  0
  2  4  1  0
  2  5  1  0
  3 30  1  0
  3 31  1  0
  3 32  1  0
  4 33  1  0
  4 34  1  0
  4 35  1  0
  5  6  2  0
  5 10  1  0
  6  7  1  0
  6 36  1  0
  7  8  2  0
  7 37  1  0
  8  9  1  0
  8 26  1  0
  9 10  2  0
  9 11  1  0
 10 38  1  0
 11 12  1  0
 11 16  1  0
 11 39  1  6
 12 13  1  0
 13 14  1  0
 13 40  1  0
 13 41  1  0
 14 15  1  0
 14 42  1  0
 14 43  1  0
 15 16  1  0
 15 44  1  0
 15 45  1  0
 16 17  1  0
 16 46  1  6
 17 18  1  0
 17 26  1  0
 17 47  1  1
 18 19  2  0
 18 25  1  0
 19 20  1  0
 19 48  1  0
 20 21  2  0
 20 49  1  0
 21 22  1  0
 21 23  1  0
 22 50  1  0
 23 24  1  0
 23 25  2  0
 25 51  1  0
 26 52  1  0
M  END
>  <ID>  (1) 
CHEMBL1078774

>  <IC50[nM]>  (1) 
17

>  <kcal/mol experimental dG>  (1) 
-10.665418883925756

>  <kJ/mol experimental dG>  (1) 
-44.624112610345364

>  <experimental dG reference field>  (1) 
IC50[nM]

>  <experimental dG reference units>  (1) 
nM

>  <atom.dprop.PartialCharge>  (1) 
-0.08449059 -0.0086665265 -0.08449059 -0.08449059 -0.09999327 -0.08469313 -0.18883231 0.15709603 -0.14847201 -0.08688973 0.19806911 -0.41063714 0.13631272 -0.11627558 -0.07475479 -0.1022789 0.27828452 -0.10243743 -0.08890808 -0.17181769 0.1015134 -0.47488385 0.07409113 -0.13514385 -0.11388573 -0.735023 0.03584554 0.03584554 0.03584554 0.03584554 0.03584554 0.03584554 0.03584554 0.03584554 0.03584554 0.13135819 0.1298468 0.13053207 0.058060087 0.047564335 0.047564335 0.051231265 0.051231265 0.046433434 0.046433434 0.07327 0.048481233 0.13998742 0.14394249 0.42013162 0.15054739 0.41247228

$$$$
CHEMBL1093087
     RDKit          3D

 66 70  0  0  0  0  0  0  0  0999 V2000
   17.0595   -4.3278    9.3015 N   0  0  0  0  0  0  0  0  0  0  0  0
   16.4111   -3.6781    8.0642 C   0  0  0  0  0  0  0  0  0  0  0  0
   15.4283   -4.6540    7.4209 C   0  0  0  0  0  0  0  0  0  0  0  0
   14.3173   -3.9632    6.7098 N   0  0  0  0  0  0  0  0  0  0  0  0
   14.6711   -3.1205    5.5672 C   0  0  0  0  0  0  0  0  0  0  0  0
   14.8777   -3.7953    4.1876 C   0  0  1  0  0  0  0  0  0  0  0  0
   15.1008   -5.3295    4.2145 C   0  0  0  0  0  0  0  0  0  0  0  0
   15.2228   -5.9222    2.8121 C   0  0  0  0  0  0  0  0  0  0  0  0
   14.1174   -5.4218    1.8557 C   0  0  1  0  0  0  0  0  0  0  0  0
   12.7216   -6.0747    2.0945 C   0  0  2  0  0  0  0  0  0  0  0  0
   12.7729   -7.6008    2.0278 C   0  0  0  0  0  0  0  0  0  0  0  0
   13.2706   -8.2220    0.8801 C   0  0  0  0  0  0  0  0  0  0  0  0
   13.3326   -9.6058    0.8050 C   0  0  0  0  0  0  0  0  0  0  0  0
   12.9181  -10.3802    1.8839 C   0  0  0  0  0  0  0  0  0  0  0  0
   12.4178   -9.7705    3.0309 C   0  0  0  0  0  0  0  0  0  0  0  0
   12.3383   -8.3811    3.1031 C   0  0  0  0  0  0  0  0  0  0  0  0
   11.7413   -5.5300    1.1481 N   0  0  0  0  0  0  0  0  0  0  0  0
   11.8102   -4.1920    0.7296 C   0  0  0  0  0  0  0  0  0  0  0  0
   10.7818   -3.7078   -0.0824 C   0  0  0  0  0  0  0  0  0  0  0  0
   10.8015   -2.3932   -0.5399 C   0  0  0  0  0  0  0  0  0  0  0  0
   11.8482   -1.5380   -0.1822 C   0  0  0  0  0  0  0  0  0  0  0  0
   11.8927   -0.1087   -0.7182 C   0  0  0  0  0  0  0  0  0  0  0  0
   10.6612    0.3848   -0.9020 F   0  0  0  0  0  0  0  0  0  0  0  0
   12.5434    0.7151    0.1022 F   0  0  0  0  0  0  0  0  0  0  0  0
   12.5269   -0.1156   -1.8900 F   0  0  0  0  0  0  0  0  0  0  0  0
   12.8592   -2.0214    0.6553 C   0  0  0  0  0  0  0  0  0  0  0  0
   12.8763   -3.3505    1.0997 C   0  0  0  0  0  0  0  0  0  0  0  0
   14.0264   -3.8788    1.9517 C   0  0  1  0  0  0  0  0  0  0  0  0
   13.7985   -3.4740    3.3022 O   0  0  0  0  0  0  0  0  0  0  0  0
   13.3153   -3.3837    7.5227 C   0  0  0  0  0  0  0  0  0  0  0  0
   13.5260   -3.1620    8.8770 C   0  0  0  0  0  0  0  0  0  0  0  0
   12.6670   -2.3578    9.6181 C   0  0  0  0  0  0  0  0  0  0  0  0
   11.5921   -1.7940    8.9796 C   0  0  0  0  0  0  0  0  0  0  0  0
   11.2437   -2.1161    7.6763 C   0  0  0  0  0  0  0  0  0  0  0  0
   12.1204   -2.9427    6.9433 C   0  0  0  0  0  0  0  0  0  0  0  0
   17.6568   -3.6617    9.7565 H   0  0  0  0  0  0  0  0  0  0  0  0
   17.6101   -5.1312    9.0447 H   0  0  0  0  0  0  0  0  0  0  0  0
   15.9195   -2.7926    8.4434 H   0  0  0  0  0  0  0  0  0  0  0  0
   17.2377   -3.4059    7.4424 H   0  0  0  0  0  0  0  0  0  0  0  0
   15.9313   -5.3216    6.7606 H   0  0  0  0  0  0  0  0  0  0  0  0
   14.9812   -5.2759    8.1921 H   0  0  0  0  0  0  0  0  0  0  0  0
   13.9247   -2.3268    5.4426 H   0  0  0  0  0  0  0  0  0  0  0  0
   15.5691   -2.5567    5.8165 H   0  0  0  0  0  0  0  0  0  0  0  0
   15.7729   -3.3247    3.7794 H   0  0  0  0  0  0  0  0  0  0  0  0
   16.0240   -5.5622    4.7373 H   0  0  0  0  0  0  0  0  0  0  0  0
   14.2903   -5.8199    4.7564 H   0  0  0  0  0  0  0  0  0  0  0  0
   16.1958   -5.6425    2.4082 H   0  0  0  0  0  0  0  0  0  0  0  0
   15.2434   -7.0086    2.8819 H   0  0  0  0  0  0  0  0  0  0  0  0
   14.4469   -5.6561    0.8431 H   0  0  0  0  0  0  0  0  0  0  0  0
   12.3742   -5.8039    3.0944 H   0  0  0  0  0  0  0  0  0  0  0  0
   13.6090   -7.6310    0.0429 H   0  0  0  0  0  0  0  0  0  0  0  0
   13.7259  -10.0642   -0.0889 H   0  0  0  0  0  0  0  0  0  0  0  0
   12.9744  -11.4583    1.8259 H   0  0  0  0  0  0  0  0  0  0  0  0
   12.0836  -10.3775    3.8617 H   0  0  0  0  0  0  0  0  0  0  0  0
   11.9448   -7.9147    3.9942 H   0  0  0  0  0  0  0  0  0  0  0  0
   10.8681   -6.0360    1.1026 H   0  0  0  0  0  0  0  0  0  0  0  0
    9.9645   -4.3552   -0.3654 H   0  0  0  0  0  0  0  0  0  0  0  0
   10.0037   -2.0394   -1.1794 H   0  0  0  0  0  0  0  0  0  0  0  0
   13.6697   -1.3617    0.9363 H   0  0  0  0  0  0  0  0  0  0  0  0
   14.9580   -3.4381    1.5896 H   0  0  0  0  0  0  0  0  0  0  0  0
   14.3767   -3.5863    9.3810 H   0  0  0  0  0  0  0  0  0  0  0  0
   12.8478   -2.1791   10.6617 H   0  0  0  0  0  0  0  0  0  0  0  0
   10.9180   -1.1483    9.5397 H   0  0  0  0  0  0  0  0  0  0  0  0
   10.3539   -1.7242    7.2367 H   0  0  0  0  0  0  0  0  0  0  0  0
   11.8461   -3.2038    5.9297 H   0  0  0  0  0  0  0  0  0  0  0  0
   16.3405   -4.6101    9.9418 H   0  0  0  0  0  0  0  0  0  0  0  0
  1  2  1  0
  1 36  1  0
  1 37  1  0
  1 66  1  0
  2  3  1  0
  2 38  1  0
  2 39  1  0
  3  4  1  0
  3 40  1  0
  3 41  1  0
  4  5  1  0
  4 30  1  0
  5  6  1  0
  5 42  1  0
  5 43  1  0
  6  7  1  0
  6 29  1  0
  6 44  1  6
  7  8  1  0
  7 45  1  0
  7 46  1  0
  8  9  1  0
  8 47  1  0
  8 48  1  0
  9 10  1  0
  9 28  1  0
  9 49  1  6
 10 11  1  0
 10 17  1  0
 10 50  1  1
 11 12  2  0
 11 16  1  0
 12 13  1  0
 12 51  1  0
 13 14  2  0
 13 52  1  0
 14 15  1  0
 14 53  1  0
 15 16  2  0
 15 54  1  0
 16 55  1  0
 17 18  1  0
 17 56  1  0
 18 19  2  0
 18 27  1  0
 19 20  1  0
 19 57  1  0
 20 21  2  0
 20 58  1  0
 21 22  1  0
 21 26  1  0
 22 23  1  0
 22 24  1  0
 22 25  1  0
 26 27  2  0
 26 59  1  0
 27 28  1  0
 28 29  1  0
 28 60  1  6
 30 31  2  0
 30 35  1  0
 31 32  1  0
 31 61  1  0
 32 33  2  0
 32 62  1  0
 33 34  1  0
 33 63  1  0
 34 35  2  0
 34 64  1  0
 35 65  1  0
M  CHG  1   1   1
M  END
>  <ID>  (2) 
CHEMBL1093087

>  <IC50[nM]>  (2) 
19

>  <kcal/mol experimental dG>  (2) 
-10.599110079658544

>  <kJ/mol experimental dG>  (2) 
-44.34667657329135

>  <experimental dG reference field>  (2) 
IC50[nM]

>  <experimental dG reference units>  (2) 
nM

>  <atom.dprop.PartialCharge>  (2) 
-0.8439845 0.059428558 0.24068657 -0.71288633 0.18402703 0.11666414 -0.10116282 -0.0748418 -0.09608927 0.27971557 -0.091881976 -0.11015062 -0.12961277 -0.116269305 -0.12961277 -0.11015062 -0.72957516 0.21454896 -0.19741033 -0.035125937 -0.21955033 0.6898529 -0.23425353 -0.23425353 -0.23425353 -0.02946921 -0.16988789 0.20400375 -0.3946727 0.09947595 -0.15909858 -0.09133351 -0.1293417 -0.09133351 -0.15909858 0.45732307 0.45732307 0.11041239 0.11041239 0.053550906 0.053550906 0.072114095 0.072114095 0.052048057 0.0630741 0.0630741 0.05424048 0.05424048 0.07793458 0.05151724 0.13814245 0.13938166 0.13861403 0.13938166 0.13814245 0.41680187 0.14291605 0.1494367 0.1452615 0.06484736 0.12512448 0.13818988 0.13708997 0.13818988 0.12512448 0.45732307

$$$$
CHEMBL1082249
     RDKit          3D

 58 61  0  0  0  0  0  0  0  0999 V2000
   16.4793   -7.2843   11.3165 C   0  0  0  0  0  0  0  0  0  0  0  0
   15.3531   -6.5124   10.6819 C   0  0  0  0  0  0  0  0  0  0  0  0
   14.3425   -6.2284   11.3248 O   0  0  0  0  0  0  0  0  0  0  0  0
   15.5705   -6.1542    9.4074 N   0  0  0  0  0  0  0  0  0  0  0  0
   14.6248   -5.4276    8.5868 C   0  0  0  0  0  0  0  0  0  0  0  0
   15.3309   -4.6310    7.4948 C   0  0  0  0  0  0  0  0  0  0  0  0
   14.2349   -3.9683    6.6666 N   0  0  0  0  0  0  0  0  0  0  0  0
   14.7037   -3.0483    5.5326 C   0  0  0  0  0  0  0  0  0  0  0  0
   14.9054   -3.7819    4.1884 C   0  0  1  0  0  0  0  0  0  0  0  0
   15.0841   -5.3250    4.2406 C   0  0  0  0  0  0  0  0  0  0  0  0
   15.2163   -5.9084    2.8271 C   0  0  0  0  0  0  0  0  0  0  0  0
   14.0959   -5.4139    1.8851 C   0  0  1  0  0  0  0  0  0  0  0  0
   12.7047   -6.0683    2.1278 C   0  0  2  0  0  0  0  0  0  0  0  0
   12.7518   -7.5911    2.0333 C   0  0  0  0  0  0  0  0  0  0  0  0
   12.3185   -8.3767    3.1031 C   0  0  0  0  0  0  0  0  0  0  0  0
   12.3947   -9.7647    3.0181 C   0  0  0  0  0  0  0  0  0  0  0  0
   12.8984  -10.3649    1.8672 C   0  0  0  0  0  0  0  0  0  0  0  0
   13.3180   -9.5891    0.7918 C   0  0  0  0  0  0  0  0  0  0  0  0
   13.2433   -8.2036    0.8752 C   0  0  0  0  0  0  0  0  0  0  0  0
   11.7323   -5.5141    1.1851 N   0  0  0  0  0  0  0  0  0  0  0  0
   11.7964   -4.1649    0.7844 C   0  0  0  0  0  0  0  0  0  0  0  0
   10.7831   -3.6789   -0.0372 C   0  0  0  0  0  0  0  0  0  0  0  0
    9.7490   -4.4602   -0.3161 F   0  0  0  0  0  0  0  0  0  0  0  0
   10.8205   -2.3838   -0.5398 C   0  0  0  0  0  0  0  0  0  0  0  0
   11.8667   -1.5519   -0.1779 C   0  0  0  0  0  0  0  0  0  0  0  0
   11.9398    0.2253   -0.8395 Br  0  0  0  0  0  0  0  0  0  0  0  0
   12.8708   -2.0181    0.6698 C   0  0  0  0  0  0  0  0  0  0  0  0
   12.8692   -3.3398    1.1350 C   0  0  0  0  0  0  0  0  0  0  0  0
   14.0156   -3.8713    1.9784 C   0  0  1  0  0  0  0  0  0  0  0  0
   13.8110   -3.4596    3.3295 O   0  0  0  0  0  0  0  0  0  0  0  0
   17.2860   -7.4122   10.5963 H   0  0  0  0  0  0  0  0  0  0  0  0
   16.1209   -8.2634   11.6274 H   0  0  0  0  0  0  0  0  0  0  0  0
   16.8684   -6.7396   12.1761 H   0  0  0  0  0  0  0  0  0  0  0  0
   16.4618   -6.3688    8.9839 H   0  0  0  0  0  0  0  0  0  0  0  0
   13.9298   -6.1630    8.1684 H   0  0  0  0  0  0  0  0  0  0  0  0
   14.0418   -4.7470    9.2039 H   0  0  0  0  0  0  0  0  0  0  0  0
   16.0166   -3.8888    7.8979 H   0  0  0  0  0  0  0  0  0  0  0  0
   15.8487   -5.2672    6.7726 H   0  0  0  0  0  0  0  0  0  0  0  0
   13.6134   -4.6809    6.3124 H   0  0  0  0  0  0  0  0  0  0  0  0
   13.8909   -2.3248    5.4758 H   0  0  0  0  0  0  0  0  0  0  0  0
   15.5997   -2.5296    5.8821 H   0  0  0  0  0  0  0  0  0  0  0  0
   15.8101   -3.3391    3.7698 H   0  0  0  0  0  0  0  0  0  0  0  0
   15.9741   -5.5907    4.8114 H   0  0  0  0  0  0  0  0  0  0  0  0
   14.2386   -5.8006    4.7402 H   0  0  0  0  0  0  0  0  0  0  0  0
   16.1810   -5.6068    2.4136 H   0  0  0  0  0  0  0  0  0  0  0  0
   15.2464   -6.9959    2.8761 H   0  0  0  0  0  0  0  0  0  0  0  0
   14.4070   -5.6435    0.8654 H   0  0  0  0  0  0  0  0  0  0  0  0
   12.3679   -5.8170    3.1367 H   0  0  0  0  0  0  0  0  0  0  0  0
   11.9257   -7.9159    3.9980 H   0  0  0  0  0  0  0  0  0  0  0  0
   12.0597  -10.3748    3.8454 H   0  0  0  0  0  0  0  0  0  0  0  0
   12.9444  -11.4421    1.8009 H   0  0  0  0  0  0  0  0  0  0  0  0
   13.6837  -10.0591   -0.1086 H   0  0  0  0  0  0  0  0  0  0  0  0
   13.5566   -7.6057    0.0323 H   0  0  0  0  0  0  0  0  0  0  0  0
   10.9526   -6.1058    0.9333 H   0  0  0  0  0  0  0  0  0  0  0  0
   10.0263   -2.0396   -1.1886 H   0  0  0  0  0  0  0  0  0  0  0  0
   13.6827   -1.3602    0.9293 H   0  0  0  0  0  0  0  0  0  0  0  0
   14.9414   -3.4345    1.5999 H   0  0  0  0  0  0  0  0  0  0  0  0
   13.7266   -3.3987    7.3300 H   0  0  0  0  0  0  0  0  0  0  0  0
  1  2  1  0
  1 31  1  0
  1 32  1  0
  1 33  1  0
  2  3  2  0
  2  4  1  0
  4  5  1  0
  4 34  1  0
  5  6  1  0
  5 35  1  0
  5 36  1  0
  6  7  1  0
  6 37  1  0
  6 38  1  0
  7  8  1  0
  7 39  1  0
  7 58  1  0
  8  9  1  0
  8 40  1  0
  8 41  1  0
  9 10  1  0
  9 30  1  0
  9 42  1  6
 10 11  1  0
 10 43  1  0
 10 44  1  0
 11 12  1  0
 11 45  1  0
 11 46  1  0
 12 13  1  0
 12 29  1  0
 12 47  1  6
 13 14  1  0
 13 20  1  0
 13 48  1  1
 14 15  2  0
 14 19  1  0
 15 16  1  0
 15 49  1  0
 16 17  2  0
 16 50  1  0
 17 18  1  0
 17 51  1  0
 18 19  2  0
 18 52  1  0
 19 53  1  0
 20 21  1  0
 20 54  1  0
 21 22  2  0
 21 28  1  0
 22 23  1  0
 22 24  1  0
 24 25  2  0
 24 55  1  0
 25 26  1  0
 25 27  1  0
 27 28  2  0
 27 56  1  0
 28 29  1  0
 29 30  1  0
 29 57  1  6
M  CHG  1   7   1
M  END
>  <ID>  (3) 
CHEMBL1082249

>  <IC50[nM]>  (3) 
6

>  <kcal/mol experimental dG>  (3) 
-11.286296985191486

>  <kJ/mol experimental dG>  (3) 
-47.22186658604118

>  <experimental dG reference field>  (3) 
IC50[nM]

>  <experimental dG reference units>  (3) 
nM

>  <atom.dprop.PartialCharge>  (3) 
-0.17313477 0.67648625 -0.582359 -0.5908556 0.0979099 0.08211869 -0.77589804 0.094563335 0.12435383 -0.10867102 -0.08182997 -0.09211648 0.28760546 -0.088909745 -0.10765688 -0.12783751 -0.11449408 -0.12783751 -0.10765688 -0.7284407 0.1862174 0.057406623 -0.14077257 -0.099389836 -0.05037131 -0.071483746 -0.045754906 -0.15155178 0.21370862 -0.42673326 0.07731568 0.07731568 0.07731568 0.3223866 0.06770833 0.06770833 0.10828158 0.10828158 0.44964105 0.114939764 0.114939764 0.058555923 0.055465475 0.055465475 0.064833686 0.064833686 0.082087874 0.05476495 0.13991776 0.14115702 0.14038937 0.14115702 0.13991776 0.42779315 0.16801178 0.152561 0.050998144 0.44964105

$$$$
CHEMBL1089393
     RDKit          3D

 39 42  0  0  0  0  0  0  0  0999 V2000
   14.8893   -3.7981    4.1945 C   0  0  0  0  0  0  0  0  0  0  0  0
   15.0804   -5.3249    4.2412 C   0  0  0  0  0  0  0  0  0  0  0  0
   15.2239   -5.9068    2.8287 C   0  0  0  0  0  0  0  0  0  0  0  0
   14.1049   -5.4146    1.8817 C   0  0  1  0  0  0  0  0  0  0  0  0
   12.7106   -6.0702    2.1171 C   0  0  2  0  0  0  0  0  0  0  0  0
   12.7580   -7.5939    2.0347 C   0  0  0  0  0  0  0  0  0  0  0  0
   12.3194   -8.3766    3.1039 C   0  0  0  0  0  0  0  0  0  0  0  0
   12.3978   -9.7673    3.0196 C   0  0  0  0  0  0  0  0  0  0  0  0
   12.9042  -10.3679    1.8692 C   0  0  0  0  0  0  0  0  0  0  0  0
   13.3260   -9.5937    0.7962 C   0  0  0  0  0  0  0  0  0  0  0  0
   13.2507   -8.2088    0.8795 C   0  0  0  0  0  0  0  0  0  0  0  0
   11.7473   -5.5319    1.1616 N   0  0  0  0  0  0  0  0  0  0  0  0
   11.7944   -4.1869    0.7523 C   0  0  0  0  0  0  0  0  0  0  0  0
   10.7727   -3.7107   -0.0610 C   0  0  0  0  0  0  0  0  0  0  0  0
   10.8032   -2.4026   -0.5353 C   0  0  0  0  0  0  0  0  0  0  0  0
   11.8552   -1.5670   -0.1635 C   0  0  0  0  0  0  0  0  0  0  0  0
   11.9379    0.0314   -0.7672 Cl  0  0  0  0  0  0  0  0  0  0  0  0
   12.8564   -2.0281    0.6785 C   0  0  0  0  0  0  0  0  0  0  0  0
   12.8661   -3.3474    1.1339 C   0  0  0  0  0  0  0  0  0  0  0  0
   14.0119   -3.8725    1.9814 C   0  0  1  0  0  0  0  0  0  0  0  0
   13.8062   -3.4544    3.3298 O   0  0  0  0  0  0  0  0  0  0  0  0
   15.8089   -3.3291    3.8337 H   0  0  0  0  0  0  0  0  0  0  0  0
   14.2305   -5.7850    4.7470 H   0  0  0  0  0  0  0  0  0  0  0  0
   15.9612   -5.5785    4.8331 H   0  0  0  0  0  0  0  0  0  0  0  0
   15.2499   -6.9950    2.8822 H   0  0  0  0  0  0  0  0  0  0  0  0
   16.1888   -5.6094    2.4116 H   0  0  0  0  0  0  0  0  0  0  0  0
   14.4180   -5.6334    0.8605 H   0  0  0  0  0  0  0  0  0  0  0  0
   12.3624   -5.8151    3.1221 H   0  0  0  0  0  0  0  0  0  0  0  0
   11.9273   -7.9173    3.9994 H   0  0  0  0  0  0  0  0  0  0  0  0
   12.0644  -10.3748    3.8484 H   0  0  0  0  0  0  0  0  0  0  0  0
   12.9482  -11.4459    1.8023 H   0  0  0  0  0  0  0  0  0  0  0  0
   13.6939  -10.0609   -0.1057 H   0  0  0  0  0  0  0  0  0  0  0  0
   13.5643   -7.6077    0.0384 H   0  0  0  0  0  0  0  0  0  0  0  0
   10.9613   -6.1290    0.9493 H   0  0  0  0  0  0  0  0  0  0  0  0
    9.9479   -4.3538   -0.3413 H   0  0  0  0  0  0  0  0  0  0  0  0
   10.0267   -2.0394   -1.1925 H   0  0  0  0  0  0  0  0  0  0  0  0
   13.6764   -1.3643    0.9323 H   0  0  0  0  0  0  0  0  0  0  0  0
   14.9419   -3.4369    1.6042 H   0  0  0  0  0  0  0  0  0  0  0  0
   14.7142   -3.3943    5.1913 H   0  0  0  0  0  0  0  0  0  0  0  0
  1  2  1  0
  1 21  1  0
  1 22  1  0
  1 39  1  0
  2  3  1  0
  2 23  1  0
  2 24  1  0
  3  4  1  0
  3 25  1  0
  3 26  1  0
  4  5  1  0
  4 20  1  0
  4 27  1  6
  5  6  1  0
  5 12  1  0
  5 28  1  1
  6  7  2  0
  6 11  1  0
  7  8  1  0
  7 29  1  0
  8  9  2  0
  8 30  1  0
  9 10  1  0
  9 31  1  0
 10 11  2  0
 10 32  1  0
 11 33  1  0
 12 13  1  0
 12 34  1  0
 13 14  2  0
 13 19  1  0
 14 15  1  0
 14 35  1  0
 15 16  2  0
 15 36  1  0
 16 17  1  0
 16 18  1  0
 18 19  2  0
 18 37  1  0
 19 20  1  0
 20 21  1  0
 20 38  1  6
M  END
>  <ID>  (4) 
CHEMBL1089393

>  <IC50[nM]>  (4) 
720

>  <kcal/mol experimental dG>  (4) 
-8.432163110492205

>  <kJ/mol experimental dG>  (4) 
-35.28017045429939

>  <experimental dG reference field>  (4) 
IC50[nM]

>  <experimental dG reference units>  (4) 
nM

>  <atom.dprop.PartialCharge>  (4) 
0.13631445 -0.116221935 -0.07541926 -0.09966545 0.2763075 -0.096058786 -0.11460206 -0.1340644 -0.12072083 -0.1340644 -0.11460206 -0.73563474 0.1645829 -0.18206829 -0.079849295 -0.024545517 -0.09683932 -0.084422514 -0.1343286 0.19775988 -0.40861285 0.047617972 0.0512849 0.0512849 0.046487078 0.046487078 0.07285704 0.047498316 0.13369071 0.13492982 0.13416222 0.13492982 0.13369071 0.41115567 0.13378051 0.14309669 0.14527653 0.060907796 0.047617972

$$$$
CHEMBL1078691
     RDKit          3D

 52 55  0  0  0  0  0  0  0  0999 V2000
   10.5284    0.3945   -0.7005 C   0  0  0  0  0  0  0  0  0  0  0  0
   11.9546   -0.1757   -0.7407 C   0  0  0  0  0  0  0  0  0  0  0  0
   12.4165   -0.1649   -2.1966 C   0  0  0  0  0  0  0  0  0  0  0  0
   12.8844    0.7521    0.0824 C   0  0  0  0  0  0  0  0  0  0  0  0
   11.8943   -1.5960   -0.1952 C   0  0  0  0  0  0  0  0  0  0  0  0
   10.8356   -2.4428   -0.5504 C   0  0  0  0  0  0  0  0  0  0  0  0
   10.7698   -3.7406   -0.0534 C   0  0  0  0  0  0  0  0  0  0  0  0
   11.7883   -4.2157    0.7713 C   0  0  0  0  0  0  0  0  0  0  0  0
   12.8596   -3.3846    1.1392 C   0  0  0  0  0  0  0  0  0  0  0  0
   12.8744   -2.0732    0.6730 C   0  0  0  0  0  0  0  0  0  0  0  0
   14.0135   -3.8879    1.9819 C   0  0  1  0  0  0  0  0  0  0  0  0
   13.8030   -3.4515    3.3286 O   0  0  0  0  0  0  0  0  0  0  0  0
   14.8803   -3.7868    4.2124 C   0  0  0  0  0  0  0  0  0  0  0  0
   15.0742   -5.3209    4.2479 C   0  0  0  0  0  0  0  0  0  0  0  0
   15.2231   -5.9051    2.8405 C   0  0  0  0  0  0  0  0  0  0  0  0
   14.1110   -5.4142    1.8892 C   0  0  1  0  0  0  0  0  0  0  0  0
   12.7111   -6.0630    2.1315 C   0  0  2  0  0  0  0  0  0  0  0  0
   12.7590   -7.5693    2.0352 C   0  0  0  0  0  0  0  0  0  0  0  0
   13.2481   -8.1881    0.8802 C   0  0  0  0  0  0  0  0  0  0  0  0
   13.3233   -9.5851    0.8265 C   0  0  0  0  0  0  0  0  0  0  0  0
   12.9107  -10.3576    1.9488 C   0  0  0  0  0  0  0  0  0  0  0  0
   12.9634  -11.6728    2.0898 O   0  0  0  0  0  0  0  0  0  0  0  0
   12.3943   -9.6942    3.0615 C   0  0  0  0  0  0  0  0  0  0  0  0
   12.3151   -8.3134    3.1219 C   0  0  0  0  0  0  0  0  0  0  0  0
   11.7105   -5.5421    1.2053 N   0  0  0  0  0  0  0  0  0  0  0  0
   10.5280    1.4627   -0.8455 H   0  0  0  0  0  0  0  0  0  0  0  0
   10.1643    0.2463    0.2887 H   0  0  0  0  0  0  0  0  0  0  0  0
    9.8005   -0.0342   -1.3977 H   0  0  0  0  0  0  0  0  0  0  0  0
   11.5237   -0.4812   -2.7197 H   0  0  0  0  0  0  0  0  0  0  0  0
   13.2176   -0.8646   -2.4082 H   0  0  0  0  0  0  0  0  0  0  0  0
   12.7087    0.8049   -2.5906 H   0  0  0  0  0  0  0  0  0  0  0  0
   12.9374    1.7755   -0.3054 H   0  0  0  0  0  0  0  0  0  0  0  0
   13.8795    0.3348    0.0963 H   0  0  0  0  0  0  0  0  0  0  0  0
   12.5806    0.8015    1.1253 H   0  0  0  0  0  0  0  0  0  0  0  0
   10.0396   -2.1260   -1.1991 H   0  0  0  0  0  0  0  0  0  0  0  0
    9.9353   -4.3746   -0.3205 H   0  0  0  0  0  0  0  0  0  0  0  0
   13.7039   -1.4652    0.9955 H   0  0  0  0  0  0  0  0  0  0  0  0
   14.9427   -3.4482    1.6054 H   0  0  0  0  0  0  0  0  0  0  0  0
   15.7960   -3.3137    3.8697 H   0  0  0  0  0  0  0  0  0  0  0  0
   14.6678   -3.4019    5.2085 H   0  0  0  0  0  0  0  0  0  0  0  0
   15.9512   -5.5698    4.8485 H   0  0  0  0  0  0  0  0  0  0  0  0
   14.2195   -5.7746    4.7481 H   0  0  0  0  0  0  0  0  0  0  0  0
   16.1903   -5.6151    2.4214 H   0  0  0  0  0  0  0  0  0  0  0  0
   15.2455   -6.9935    2.8950 H   0  0  0  0  0  0  0  0  0  0  0  0
   14.4209   -5.6374    0.8659 H   0  0  0  0  0  0  0  0  0  0  0  0
   12.3698   -5.8077    3.1400 H   0  0  0  0  0  0  0  0  0  0  0  0
   13.5669   -7.5944    0.0360 H   0  0  0  0  0  0  0  0  0  0  0  0
   13.6985  -10.0555   -0.0752 H   0  0  0  0  0  0  0  0  0  0  0  0
   13.1844  -12.1816    1.2794 H   0  0  0  0  0  0  0  0  0  0  0  0
   12.0817  -10.3093    3.8845 H   0  0  0  0  0  0  0  0  0  0  0  0
   11.9231   -7.8651    4.0186 H   0  0  0  0  0  0  0  0  0  0  0  0
   10.8078   -5.9877    1.2726 H   0  0  0  0  0  0  0  0  0  0  0  0
  1  2  1  0
  1 26  1  0
  1 27  1  0
  1 28  1  0
  2  3  1  0
  2  4  1  0
  2  5  1  0
  3 29  1  0
  3 30  1  0
  3 31  1  0
  4 32  1  0
  4 33  1  0
  4 34  1  0
  5  6  2  0
  5 10  1  0
  6  7  1  0
  6 35  1  0
  7  8  2  0
  7 36  1  0
  8  9  1  0
  8 25  1  0
  9 10  2  0
  9 11  1  0
 10 37  1  0
 11 12  1  0
 11 16  1  0
 11 38  1  6
 12 13  1  0
 13 14  1  0
 13 39  1  0
 13 40  1  0
 14 15  1  0
 14 41  1  0
 14 42  1  0
 15 16  1  0
 15 43  1  0
 15 44  1  0
 16 17  1  0
 16 45  1  6
 17 18  1  0
 17 25  1  0
 17 46  1  1
 18 19  2  0
 18 24  1  0
 19 20  1  0
 19 47  1  0
 20 21  2  0
 20 48  1  0
 21 22  1  0
 21 23  1  0
 22 49  1  0
 23 24  2  0
 23 50  1  0
 24 51  1  0
 25 52  1  0
M  END
>  <ID>  (5) 
CHEMBL1078691

>  <IC50[nM]>  (5) 
34

>  <kcal/mol experimental dG>  (5) 
-10.252188960099543

>  <kJ/mol experimental dG>  (5) 
-42.89515860905649

>  <experimental dG reference field>  (5) 
IC50[nM]

>  <experimental dG reference units>  (5) 
nM

>  <atom.dprop.PartialCharge>  (5) 
-0.08488013 -0.009056035 -0.08488013 -0.08488013 -0.1003828 -0.08508264 -0.18922186 0.1563695 -0.14886156 -0.087279245 0.19744286 -0.41102678 0.13592322 -0.1166651 -0.075468265 -0.10394256 0.280282 -0.12892155 -0.07323697 -0.18934084 0.13392544 -0.49369228 -0.18934084 -0.07323697 -0.73665124 0.035456017 0.035456017 0.035456017 0.035456017 0.035456017 0.035456017 0.035456017 0.035456017 0.035456017 0.13096866 0.12945725 0.13014254 0.057670563 0.047174804 0.047174804 0.050841734 0.050841734 0.04604391 0.04604391 0.0726701 0.045989424 0.13416494 0.14424509 0.41925392 0.14424509 0.13416494 0.41190717

$$$$
CHEMBL1086409
     RDKit          3D

 51 54  0  0  0  0  0  0  0  0999 V2000
   15.2852   -4.6386    7.5377 C   0  0  0  0  0  0  0  0  0  0  0  0
   14.2140   -3.9638    6.6838 N   0  0  0  0  0  0  0  0  0  0  0  0
   14.7229   -3.0568    5.5568 C   0  0  0  0  0  0  0  0  0  0  0  0
   14.9031   -3.7791    4.1930 C   0  0  1  0  0  0  0  0  0  0  0  0
   15.0673   -5.3233    4.2376 C   0  0  0  0  0  0  0  0  0  0  0  0
   15.2106   -5.9104    2.8268 C   0  0  0  0  0  0  0  0  0  0  0  0
   14.0964   -5.4064    1.8821 C   0  0  1  0  0  0  0  0  0  0  0  0
   12.7040   -6.0577    2.1299 C   0  0  2  0  0  0  0  0  0  0  0  0
   12.7501   -7.5747    2.0307 C   0  0  0  0  0  0  0  0  0  0  0  0
   13.2481   -8.1929    0.8744 C   0  0  0  0  0  0  0  0  0  0  0  0
   13.3274   -9.5772    0.8022 C   0  0  0  0  0  0  0  0  0  0  0  0
   12.9065  -10.3273    1.8986 C   0  0  0  0  0  0  0  0  0  0  0  0
   12.9781  -11.6576    1.9122 F   0  0  0  0  0  0  0  0  0  0  0  0
   12.4005   -9.7294    3.0355 C   0  0  0  0  0  0  0  0  0  0  0  0
   12.3196   -8.3522    3.1084 C   0  0  0  0  0  0  0  0  0  0  0  0
   11.6986   -5.5069    1.2248 N   0  0  0  0  0  0  0  0  0  0  0  0
   11.7870   -4.1773    0.7812 C   0  0  0  0  0  0  0  0  0  0  0  0
   10.7766   -3.7112   -0.0571 C   0  0  0  0  0  0  0  0  0  0  0  0
   10.8176   -2.4109   -0.5470 C   0  0  0  0  0  0  0  0  0  0  0  0
   11.8604   -1.5556   -0.1863 C   0  0  0  0  0  0  0  0  0  0  0  0
   11.9094   -0.1390   -0.7460 C   0  0  0  0  0  0  0  0  0  0  0  0
   12.5320   -0.1612   -1.9254 F   0  0  0  0  0  0  0  0  0  0  0  0
   10.6767    0.3334   -0.9239 F   0  0  0  0  0  0  0  0  0  0  0  0
   12.5676    0.6891    0.0651 F   0  0  0  0  0  0  0  0  0  0  0  0
   12.8548   -2.0208    0.6812 C   0  0  0  0  0  0  0  0  0  0  0  0
   12.8610   -3.3416    1.1411 C   0  0  0  0  0  0  0  0  0  0  0  0
   14.0088   -3.8657    1.9891 C   0  0  1  0  0  0  0  0  0  0  0  0
   13.7932   -3.4672    3.3434 O   0  0  0  0  0  0  0  0  0  0  0  0
   14.6948   -5.2041    8.2632 H   0  0  0  0  0  0  0  0  0  0  0  0
   15.8829   -3.8490    8.0065 H   0  0  0  0  0  0  0  0  0  0  0  0
   15.8800   -5.2958    6.9019 H   0  0  0  0  0  0  0  0  0  0  0  0
   13.6178   -4.6706    6.2820 H   0  0  0  0  0  0  0  0  0  0  0  0
   13.9311   -2.3052    5.5033 H   0  0  0  0  0  0  0  0  0  0  0  0
   15.6440   -2.5855    5.9141 H   0  0  0  0  0  0  0  0  0  0  0  0
   15.8092   -3.3451    3.7550 H   0  0  0  0  0  0  0  0  0  0  0  0
   15.9506   -5.6016    4.8084 H   0  0  0  0  0  0  0  0  0  0  0  0
   14.2088   -5.7825    4.7320 H   0  0  0  0  0  0  0  0  0  0  0  0
   16.1820   -5.6237    2.4174 H   0  0  0  0  0  0  0  0  0  0  0  0
   15.2320   -6.9982    2.8820 H   0  0  0  0  0  0  0  0  0  0  0  0
   14.4096   -5.6240    0.8610 H   0  0  0  0  0  0  0  0  0  0  0  0
   12.3673   -5.8233    3.1411 H   0  0  0  0  0  0  0  0  0  0  0  0
   13.5784   -7.5954    0.0345 H   0  0  0  0  0  0  0  0  0  0  0  0
   13.7093  -10.0600   -0.0884 H   0  0  0  0  0  0  0  0  0  0  0  0
   12.0946  -10.3597    3.8597 H   0  0  0  0  0  0  0  0  0  0  0  0
   11.9422   -7.8995    4.0140 H   0  0  0  0  0  0  0  0  0  0  0  0
   10.7765   -5.8854    1.4070 H   0  0  0  0  0  0  0  0  0  0  0  0
    9.9543   -4.3549   -0.3328 H   0  0  0  0  0  0  0  0  0  0  0  0
   10.0329   -2.0650   -1.2044 H   0  0  0  0  0  0  0  0  0  0  0  0
   13.6650   -1.3653    0.9686 H   0  0  0  0  0  0  0  0  0  0  0  0
   14.9422   -3.4219    1.6325 H   0  0  0  0  0  0  0  0  0  0  0  0
   13.6785   -3.3900    7.3163 H   0  0  0  0  0  0  0  0  0  0  0  0
  1  2  1  0
  1 29  1  0
  1 30  1  0
  1 31  1  0
  2  3  1  0
  2 32  1  0
  2 51  1  0
  3  4  1  0
  3 33  1  0
  3 34  1  0
  4  5  1  0
  4 28  1  0
  4 35  1  6
  5  6  1  0
  5 36  1  0
  5 37  1  0
  6  7  1  0
  6 38  1  0
  6 39  1  0
  7  8  1  0
  7 27  1  0
  7 40  1  6
  8  9  1  0
  8 16  1  0
  8 41  1  1
  9 10  2  0
  9 15  1  0
 10 11  1  0
 10 42  1  0
 11 12  2  0
 11 43  1  0
 12 13  1  0
 12 14  1  0
 14 15  2  0
 14 44  1  0
 15 45  1  0
 16 17  1  0
 16 46  1  0
 17 18  2  0
 17 26  1  0
 18 19  1  0
 18 47  1  0
 19 20  2  0
 19 48  1  0
 20 21  1  0
 20 25  1  0
 21 22  1  0
 21 23  1  0
 21 24  1  0
 25 26  2  0
 25 49  1  0
 26 27  1  0
 27 28  1  0
 27 50  1  6
M  CHG  1   2   1
M  END
>  <ID>  (6) 
CHEMBL1086409

>  <IC50[nM]>  (6) 
58

>  <kcal/mol experimental dG>  (6) 
-9.933787802066142

>  <kJ/mol experimental dG>  (6) 
-41.562968163844744

>  <experimental dG reference field>  (6) 
IC50[nM]

>  <experimental dG reference units>  (6) 
nM

>  <atom.dprop.PartialCharge>  (6) 
0.080814764 -0.7572773 0.092145294 0.12425886 -0.109504715 -0.08115491 -0.09434129 0.2849907 -0.10261361 -0.08301006 -0.16452688 0.14214544 -0.13034791 -0.16452688 -0.08301006 -0.7278843 0.2285113 -0.19575514 -0.033470925 -0.21789515 0.69150805 -0.23259804 -0.23259804 -0.23259804 -0.017293617 -0.17993125 0.21305425 -0.42879683 0.10917011 0.10917011 0.10917011 0.4524322 0.1153605 0.1153605 0.057717543 0.055804487 0.055804487 0.06471355 0.06471355 0.08178115 0.053579994 0.14549482 0.1566036 0.1566036 0.14549482 0.41845697 0.14457127 0.15109186 0.14691664 0.049262058 0.4524322

$$$$
CHEMBL1082248
     RDKit          3D

 48 51  0  0  0  0  0  0  0  0999 V2000
   15.2950   -4.6489    7.5427 C   0  0  0  0  0  0  0  0  0  0  0  0
   14.2431   -3.9717    6.6832 N   0  0  0  0  0  0  0  0  0  0  0  0
   14.7152   -3.0566    5.5506 C   0  0  0  0  0  0  0  0  0  0  0  0
   14.8996   -3.7854    4.1962 C   0  0  1  0  0  0  0  0  0  0  0  0
   15.0784   -5.3263    4.2419 C   0  0  0  0  0  0  0  0  0  0  0  0
   15.2145   -5.9089    2.8275 C   0  0  0  0  0  0  0  0  0  0  0  0
   14.0958   -5.4103    1.8854 C   0  0  1  0  0  0  0  0  0  0  0  0
   12.7046   -6.0664    2.1334 C   0  0  2  0  0  0  0  0  0  0  0  0
   12.7522   -7.5891    2.0319 C   0  0  0  0  0  0  0  0  0  0  0  0
   13.2426   -8.2016    0.8733 C   0  0  0  0  0  0  0  0  0  0  0  0
   13.3140   -9.5878    0.7904 C   0  0  0  0  0  0  0  0  0  0  0  0
   12.8993  -10.3629    1.8685 C   0  0  0  0  0  0  0  0  0  0  0  0
   12.3976   -9.7624    3.0199 C   0  0  0  0  0  0  0  0  0  0  0  0
   12.3188   -8.3746    3.1014 C   0  0  0  0  0  0  0  0  0  0  0  0
   11.7003   -5.5083    1.2297 N   0  0  0  0  0  0  0  0  0  0  0  0
   11.7953   -4.1716    0.7885 C   0  0  0  0  0  0  0  0  0  0  0  0
   10.7805   -3.6907   -0.0459 C   0  0  0  0  0  0  0  0  0  0  0  0
    9.7395   -4.4635   -0.3381 F   0  0  0  0  0  0  0  0  0  0  0  0
   10.8168   -2.3885   -0.5402 C   0  0  0  0  0  0  0  0  0  0  0  0
   11.8588   -1.5562   -0.1789 C   0  0  0  0  0  0  0  0  0  0  0  0
   11.9219    0.2266   -0.8239 Br  0  0  0  0  0  0  0  0  0  0  0  0
   12.8579   -2.0181    0.6739 C   0  0  0  0  0  0  0  0  0  0  0  0
   12.8701   -3.3425    1.1348 C   0  0  0  0  0  0  0  0  0  0  0  0
   14.0136   -3.8673    1.9896 C   0  0  1  0  0  0  0  0  0  0  0  0
   13.8021   -3.4602    3.3414 O   0  0  0  0  0  0  0  0  0  0  0  0
   14.6722   -5.3376    8.1135 H   0  0  0  0  0  0  0  0  0  0  0  0
   15.7378   -3.8667    8.1578 H   0  0  0  0  0  0  0  0  0  0  0  0
   15.9889   -5.1440    6.8693 H   0  0  0  0  0  0  0  0  0  0  0  0
   13.6986   -4.7078    6.2653 H   0  0  0  0  0  0  0  0  0  0  0  0
   13.9006   -2.3314    5.5188 H   0  0  0  0  0  0  0  0  0  0  0  0
   15.6229   -2.5742    5.9093 H   0  0  0  0  0  0  0  0  0  0  0  0
   15.8010   -3.3533    3.7592 H   0  0  0  0  0  0  0  0  0  0  0  0
   15.9669   -5.5897    4.8122 H   0  0  0  0  0  0  0  0  0  0  0  0
   14.2332   -5.7983    4.7432 H   0  0  0  0  0  0  0  0  0  0  0  0
   16.1816   -5.6138    2.4140 H   0  0  0  0  0  0  0  0  0  0  0  0
   15.2390   -6.9966    2.8739 H   0  0  0  0  0  0  0  0  0  0  0  0
   14.4023   -5.6396    0.8642 H   0  0  0  0  0  0  0  0  0  0  0  0
   12.3631   -5.8282    3.1420 H   0  0  0  0  0  0  0  0  0  0  0  0
   13.5605   -7.6046    0.0315 H   0  0  0  0  0  0  0  0  0  0  0  0
   13.6817  -10.0581   -0.1090 H   0  0  0  0  0  0  0  0  0  0  0  0
   12.9563  -11.4399    1.8085 H   0  0  0  0  0  0  0  0  0  0  0  0
   12.0729  -10.3710    3.8527 H   0  0  0  0  0  0  0  0  0  0  0  0
   11.9266   -7.9115    3.9950 H   0  0  0  0  0  0  0  0  0  0  0  0
   10.7715   -5.8527    1.4458 H   0  0  0  0  0  0  0  0  0  0  0  0
   10.0125   -2.0341   -1.1684 H   0  0  0  0  0  0  0  0  0  0  0  0
   13.6352   -1.3316    0.9629 H   0  0  0  0  0  0  0  0  0  0  0  0
   14.9508   -3.4231    1.6469 H   0  0  0  0  0  0  0  0  0  0  0  0
   13.6821   -3.4293    7.3237 H   0  0  0  0  0  0  0  0  0  0  0  0
  1  2  1  0
  1 26  1  0
  1 27  1  0
  1 28  1  0
  2  3  1  0
  2 29  1  0
  2 48  1  0
  3  4  1  0
  3 30  1  0
  3 31  1  0
  4  5  1  0
  4 25  1  0
  4 32  1  6
  5  6  1  0
  5 33  1  0
  5 34  1  0
  6  7  1  0
  6 35  1  0
  6 36  1  0
  7  8  1  0
  7 24  1  0
  7 37  1  6
  8  9  1  0
  8 15  1  0
  8 38  1  1
  9 10  2  0
  9 14  1  0
 10 11  1  0
 10 39  1  0
 11 12  2  0
 11 40  1  0
 12 13  1  0
 12 41  1  0
 13 14  2  0
 13 42  1  0
 14 43  1  0
 15 16  1  0
 15 44  1  0
 16 17  2  0
 16 23  1  0
 17 18  1  0
 17 19  1  0
 19 20  2  0
 19 45  1  0
 20 21  1  0
 20 22  1  0
 22 23  2  0
 22 46  1  0
 23 24  1  0
 24 25  1  0
 24 47  1  6
M  CHG  1   2   1
M  END
>  <ID>  (7) 
CHEMBL1082248

>  <IC50[nM]>  (7) 
3

>  <kcal/mol experimental dG>  (7) 
-11.699526909017699

>  <kJ/mol experimental dG>  (7) 
-48.95082058733006

>  <experimental dG reference field>  (7) 
IC50[nM]

>  <experimental dG reference units>  (7) 
nM

>  <atom.dprop.PartialCharge>  (7) 
0.08065799 -0.7574341 0.09198852 0.12299371 -0.10966149 -0.08145904 -0.0923934 0.28732857 -0.08918667 -0.1079338 -0.12811445 -0.114771 -0.12811445 -0.1079338 -0.72871774 0.1859405 0.057129707 -0.14104952 -0.09966676 -0.05064824 -0.07176069 -0.046031818 -0.15182872 0.21405877 -0.42906913 0.109013334 0.109013334 0.109013334 0.4522754 0.11520372 0.11520372 0.057560757 0.0556477 0.0556477 0.06455676 0.06455676 0.081810944 0.054488026 0.13964084 0.14088008 0.14011243 0.14088008 0.13964084 0.42751622 0.16773485 0.15228406 0.050721217 0.4522754

$$$$
CHEMBL1084678
     RDKit          3D

 65 68  0  0  0  0  0  0  0  0999 V2000
   13.9216   -5.2248    6.2140 C   0  0  0  0  0  0  0  0  0  0  0  0
   14.3931   -3.9357    6.7113 N   0  0  0  0  0  0  0  0  0  0  0  0
   14.7292   -3.0772    5.5493 C   0  0  0  0  0  0  0  0  0  0  0  0
   14.9090   -3.7899    4.1939 C   0  0  1  0  0  0  0  0  0  0  0  0
   15.0802   -5.3264    4.2516 C   0  0  0  0  0  0  0  0  0  0  0  0
   15.2184   -5.9103    2.8356 C   0  0  0  0  0  0  0  0  0  0  0  0
   14.1038   -5.4145    1.8827 C   0  0  1  0  0  0  0  0  0  0  0  0
   12.7108   -6.0690    2.1214 C   0  0  2  0  0  0  0  0  0  0  0  0
   12.7593   -7.5926    2.0373 C   0  0  0  0  0  0  0  0  0  0  0  0
   13.2528   -8.2067    0.8813 C   0  0  0  0  0  0  0  0  0  0  0  0
   13.3297   -9.5928    0.7978 C   0  0  0  0  0  0  0  0  0  0  0  0
   12.9076  -10.3673    1.8725 C   0  0  0  0  0  0  0  0  0  0  0  0
   12.4034   -9.7655    3.0228 C   0  0  0  0  0  0  0  0  0  0  0  0
   12.3256   -8.3763    3.1078 C   0  0  0  0  0  0  0  0  0  0  0  0
   11.7374   -5.5233    1.1763 N   0  0  0  0  0  0  0  0  0  0  0  0
   11.7936   -4.1831    0.7614 C   0  0  0  0  0  0  0  0  0  0  0  0
   10.7743   -3.7096   -0.0570 C   0  0  0  0  0  0  0  0  0  0  0  0
   10.8089   -2.4050   -0.5396 C   0  0  0  0  0  0  0  0  0  0  0  0
   11.8578   -1.5536   -0.1865 C   0  0  0  0  0  0  0  0  0  0  0  0
   11.9038   -0.1354   -0.7457 C   0  0  0  0  0  0  0  0  0  0  0  0
   12.5538    0.6943    0.0706 F   0  0  0  0  0  0  0  0  0  0  0  0
   10.6704    0.3354   -0.9312 F   0  0  0  0  0  0  0  0  0  0  0  0
   12.5323   -0.1555   -1.9215 F   0  0  0  0  0  0  0  0  0  0  0  0
   12.8594   -2.0221    0.6688 C   0  0  0  0  0  0  0  0  0  0  0  0
   12.8662   -3.3440    1.1312 C   0  0  0  0  0  0  0  0  0  0  0  0
   14.0156   -3.8719    1.9779 C   0  0  1  0  0  0  0  0  0  0  0  0
   13.8095   -3.4697    3.3345 O   0  0  0  0  0  0  0  0  0  0  0  0
   15.6866   -4.1881    7.8512 S   0  0  0  0  0  6  0  0  0  0  0  0
   15.9605   -2.8994    8.4965 O   0  0  0  0  0  0  0  0  0  0  0  0
   16.7692   -4.9053    7.1723 O   0  0  0  0  0  0  0  0  0  0  0  0
   14.8572   -5.3740    9.0989 C   0  0  0  0  0  0  0  0  0  0  0  0
   15.9171   -5.9921   10.0050 C   0  0  0  0  0  0  0  0  0  0  0  0
   15.3038   -6.9160   11.0151 C   0  0  0  0  0  0  0  0  0  0  0  0
   16.3534   -7.4821   11.8573 N   0  0  0  0  0  0  0  0  0  0  0  0
   13.1126   -5.0654    5.5011 H   0  0  0  0  0  0  0  0  0  0  0  0
   13.5579   -5.8251    7.0480 H   0  0  0  0  0  0  0  0  0  0  0  0
   14.7422   -5.7465    5.7215 H   0  0  0  0  0  0  0  0  0  0  0  0
   13.9642   -2.3054    5.4592 H   0  0  0  0  0  0  0  0  0  0  0  0
   15.6464   -2.5325    5.7827 H   0  0  0  0  0  0  0  0  0  0  0  0
   15.8063   -3.3644    3.7396 H   0  0  0  0  0  0  0  0  0  0  0  0
   15.9574   -5.5924    4.8413 H   0  0  0  0  0  0  0  0  0  0  0  0
   14.2186   -5.7837    4.7374 H   0  0  0  0  0  0  0  0  0  0  0  0
   16.1824   -5.6023    2.4292 H   0  0  0  0  0  0  0  0  0  0  0  0
   15.2504   -6.9993    2.8747 H   0  0  0  0  0  0  0  0  0  0  0  0
   14.4142   -5.6578    0.8660 H   0  0  0  0  0  0  0  0  0  0  0  0
   12.3696   -5.7939    3.1206 H   0  0  0  0  0  0  0  0  0  0  0  0
   13.5731   -7.6058    0.0429 H   0  0  0  0  0  0  0  0  0  0  0  0
   13.7135  -10.0635   -0.0957 H   0  0  0  0  0  0  0  0  0  0  0  0
   12.9663  -11.4447    1.8125 H   0  0  0  0  0  0  0  0  0  0  0  0
   12.0731  -10.3767    3.8503 H   0  0  0  0  0  0  0  0  0  0  0  0
   11.9367   -7.9121    4.0023 H   0  0  0  0  0  0  0  0  0  0  0  0
   10.9629   -6.1171    0.9159 H   0  0  0  0  0  0  0  0  0  0  0  0
    9.9574   -4.3554   -0.3440 H   0  0  0  0  0  0  0  0  0  0  0  0
   10.0263   -2.0526   -1.1952 H   0  0  0  0  0  0  0  0  0  0  0  0
   13.6706   -1.3642    0.9426 H   0  0  0  0  0  0  0  0  0  0  0  0
   14.9395   -3.4278    1.6031 H   0  0  0  0  0  0  0  0  0  0  0  0
   14.1288   -4.7959    9.6664 H   0  0  0  0  0  0  0  0  0  0  0  0
   14.3347   -6.1489    8.5436 H   0  0  0  0  0  0  0  0  0  0  0  0
   16.6439   -6.5608    9.4235 H   0  0  0  0  0  0  0  0  0  0  0  0
   16.4631   -5.2166   10.5437 H   0  0  0  0  0  0  0  0  0  0  0  0
   14.6002   -6.3607   11.6353 H   0  0  0  0  0  0  0  0  0  0  0  0
   14.7780   -7.7200   10.5000 H   0  0  0  0  0  0  0  0  0  0  0  0
   15.9405   -8.1042   12.5374 H   0  0  0  0  0  0  0  0  0  0  0  0
   16.8406   -6.7371   12.3345 H   0  0  0  0  0  0  0  0  0  0  0  0
   17.0054   -7.9967   11.2826 H   0  0  0  0  0  0  0  0  0  0  0  0
  1  2  1  0
  1 35  1  0
  1 36  1  0
  1 37  1  0
  2  3  1  0
  2 28  1  0
  3  4  1  0
  3 38  1  0
  3 39  1  0
  4  5  1  0
  4 27  1  0
  4 40  1  6
  5  6  1  0
  5 41  1  0
  5 42  1  0
  6  7  1  0
  6 43  1  0
  6 44  1  0
  7  8  1  0
  7 26  1  0
  7 45  1  6
  8  9  1  0
  8 15  1  0
  8 46  1  1
  9 10  2  0
  9 14  1  0
 10 11  1  0
 10 47  1  0
 11 12  2  0
 11 48  1  0
 12 13  1  0
 12 49  1  0
 13 14  2  0
 13 50  1  0
 14 51  1  0
 15 16  1  0
 15 52  1  0
 16 17  2  0
 16 25  1  0
 17 18  1  0
 17 53  1  0
 18 19  2  0
 18 54  1  0
 19 20  1  0
 19 24  1  0
 20 21  1  0
 20 22  1  0
 20 23  1  0
 24 25  2  0
 24 55  1  0
 25 26  1  0
 26 27  1  0
 26 56  1  6
 28 29  2  0
 28 30  2  0
 28 31  1  0
 31 32  1  0
 31 57  1  0
 31 58  1  0
 32 33  1  0
 32 59  1  0
 32 60  1  0
 33 34  1  0
 33 61  1  0
 33 62  1  0
 34 63  1  0
 34 64  1  0
 34 65  1  0
M  CHG  1  34   1
M  END
>  <ID>  (8) 
CHEMBL1084678

>  <IC50[nM]>  (8) 
7

>  <kcal/mol experimental dG>  (8) 
-11.1943977818631

>  <kJ/mol experimental dG>  (8) 
-46.837360319315216

>  <experimental dG reference field>  (8) 
IC50[nM]

>  <experimental dG reference units>  (8) 
nM

>  <atom.dprop.PartialCharge>  (8) 
0.19405077 -0.78848135 0.21230313 0.124365404 -0.09924432 -0.07588422 -0.097004965 0.27883682 -0.092760846 -0.111029446 -0.13049164 -0.117148146 -0.13049164 -0.111029446 -0.7304544 0.21367022 -0.19828923 -0.03600474 -0.22042921 0.68897396 -0.23513258 -0.23513258 -0.23513258 -0.030348044 -0.17066182 0.20411487 -0.3937233 1.4557707 -0.63896805 -0.63896805 -0.317789 -0.09291989 0.09233202 -0.8394996 0.05111306 0.05111306 0.05111306 0.0695924 0.0695924 0.059145626 0.06327368 0.06327368 0.05357907 0.05357907 0.07705569 0.05063839 0.13726357 0.13850275 0.13773513 0.13850275 0.13726357 0.415923 0.14203715 0.14855781 0.14438263 0.06417678 0.11186132 0.11186132 0.08095224 0.08095224 0.111750826 0.111750826 0.458686 0.458686 0.458686

$$$$
CHEMBL1084115
     RDKit          3D

 48 51  0  0  0  0  0  0  0  0999 V2000
   12.7905    0.8113    0.0884 C   0  0  0  0  0  0  0  0  0  0  0  0
   11.9263   -0.1652   -0.7557 C   0  0  0  0  0  0  0  0  0  0  0  0
   12.4938   -0.2209   -2.1702 C   0  0  0  0  0  0  0  0  0  0  0  0
   10.4639    0.3327   -0.8178 C   0  0  0  0  0  0  0  0  0  0  0  0
   11.8952   -1.5870   -0.1857 C   0  0  0  0  0  0  0  0  0  0  0  0
   10.8567   -2.4703   -0.5485 C   0  0  0  0  0  0  0  0  0  0  0  0
   10.8008   -3.7530   -0.0487 C   0  0  0  0  0  0  0  0  0  0  0  0
   11.8122   -4.2238    0.7871 C   0  0  0  0  0  0  0  0  0  0  0  0
   12.8826   -3.3657    1.1452 C   0  0  0  0  0  0  0  0  0  0  0  0
   12.8768   -2.0583    0.6771 C   0  0  0  0  0  0  0  0  0  0  0  0
   14.0286   -3.8762    1.9932 C   0  0  1  0  0  0  0  0  0  0  0  0
   13.8036   -3.4388    3.3367 O   0  0  0  0  0  0  0  0  0  0  0  0
   14.8743   -3.7832    4.2226 C   0  0  0  0  0  0  0  0  0  0  0  0
   15.0676   -5.3199    4.2586 C   0  0  0  0  0  0  0  0  0  0  0  0
   15.2317   -5.8973    2.8508 C   0  0  0  0  0  0  0  0  0  0  0  0
   14.1288   -5.4003    1.8929 C   0  0  1  0  0  0  0  0  0  0  0  0
   12.7338   -6.0798    2.1298 C   0  0  2  0  0  0  0  0  0  0  0  0
   12.7833   -7.5758    1.9513 C   0  0  0  0  0  0  0  0  0  0  0  0
   13.3328   -8.2240    0.8368 C   0  0  0  0  0  0  0  0  0  0  0  0
   13.3036   -9.5996    0.9042 C   0  0  0  0  0  0  0  0  0  0  0  0
   12.5533  -10.1505    2.3594 S   0  0  0  0  0  0  0  0  0  0  0  0
   12.2835   -8.5069    2.8549 C   0  0  0  0  0  0  0  0  0  0  0  0
   11.7330   -5.5400    1.2141 N   0  0  0  0  0  0  0  0  0  0  0  0
   12.8774    1.8196   -0.3202 H   0  0  0  0  0  0  0  0  0  0  0  0
   13.7853    0.3992    0.1623 H   0  0  0  0  0  0  0  0  0  0  0  0
   12.5316    0.8875    1.1493 H   0  0  0  0  0  0  0  0  0  0  0  0
   12.5396    0.7334   -2.7014 H   0  0  0  0  0  0  0  0  0  0  0  0
   11.8012   -0.8731   -2.7045 H   0  0  0  0  0  0  0  0  0  0  0  0
   13.4817   -0.6704   -2.2071 H   0  0  0  0  0  0  0  0  0  0  0  0
    9.7760   -0.2126   -1.4624 H   0  0  0  0  0  0  0  0  0  0  0  0
   10.2442    1.3554   -1.1064 H   0  0  0  0  0  0  0  0  0  0  0  0
   10.1299    0.2315    0.2170 H   0  0  0  0  0  0  0  0  0  0  0  0
   10.0702   -2.1959   -1.2188 H   0  0  0  0  0  0  0  0  0  0  0  0
    9.9698   -4.3894   -0.3253 H   0  0  0  0  0  0  0  0  0  0  0  0
   13.7147   -1.4524    0.9854 H   0  0  0  0  0  0  0  0  0  0  0  0
   14.9578   -3.4374    1.6153 H   0  0  0  0  0  0  0  0  0  0  0  0
   15.7930   -3.3245    3.8765 H   0  0  0  0  0  0  0  0  0  0  0  0
   14.6628   -3.3951    5.2148 H   0  0  0  0  0  0  0  0  0  0  0  0
   15.9430   -5.5641    4.8625 H   0  0  0  0  0  0  0  0  0  0  0  0
   14.2109   -5.7763    4.7551 H   0  0  0  0  0  0  0  0  0  0  0  0
   16.2014   -5.6107    2.4371 H   0  0  0  0  0  0  0  0  0  0  0  0
   15.2555   -6.9840    2.9015 H   0  0  0  0  0  0  0  0  0  0  0  0
   14.4523   -5.5955    0.8708 H   0  0  0  0  0  0  0  0  0  0  0  0
   12.3885   -5.8052    3.1269 H   0  0  0  0  0  0  0  0  0  0  0  0
   13.7581   -7.6897    0.0035 H   0  0  0  0  0  0  0  0  0  0  0  0
   13.6812  -10.3029    0.1651 H   0  0  0  0  0  0  0  0  0  0  0  0
   11.7910   -8.3088    3.7910 H   0  0  0  0  0  0  0  0  0  0  0  0
   10.8761   -6.0660    1.1786 H   0  0  0  0  0  0  0  0  0  0  0  0
  1  2  1  0
  1 24  1  0
  1 25  1  0
  1 26  1  0
  2  3  1  0
  2  4  1  0
  2  5  1  0
  3 27  1  0
  3 28  1  0
  3 29  1  0
  4 30  1  0
  4 31  1  0
  4 32  1  0
  5  6  2  0
  5 10  1  0
  6  7  1  0
  6 33  1  0
  7  8  2  0
  7 34  1  0
  8  9  1  0
  8 23  1  0
  9 10  2  0
  9 11  1  0
 10 35  1  0
 11 12  1  0
 11 16  1  0
 11 36  1  6
 12 13  1  0
 13 14  1  0
 13 37  1  0
 13 38  1  0
 14 15  1  0
 14 39  1  0
 14 40  1  0
 15 16  1  0
 15 41  1  0
 15 42  1  0
 16 17  1  0
 16 43  1  6
 17 18  1  0
 17 23  1  0
 17 44  1  1
 18 19  1  0
 18 22  2  0
 19 20  2  0
 19 45  1  0
 20 21  1  0
 20 46  1  0
 21 22  1  0
 22 47  1  0
 23 48  1  0
M  END
>  <ID>  (9) 
CHEMBL1084115

>  <IC50[nM]>  (9) 
120

>  <kcal/mol experimental dG>  (9) 
-9.50034696775882

>  <kJ/mol experimental dG>  (9) 
-39.7494517131029

>  <experimental dG reference field>  (9) 
IC50[nM]

>  <experimental dG reference units>  (9) 
nM

>  <atom.dprop.PartialCharge>  (9) 
-0.08437167 -0.008547612 -0.08437167 -0.08437167 -0.10008529 -0.08522962 -0.18974045 0.15990847 -0.15043119 -0.086964525 0.19468619 -0.41123733 0.13635772 -0.11864602 -0.079117656 -0.103414334 0.29921627 -0.12804516 -0.13762268 -0.18355593 0.054104768 -0.16575551 -0.7407976 0.03596446 0.03596446 0.03596446 0.03596446 0.03596446 0.03596446 0.03596446 0.03596446 0.03596446 0.13138224 0.12974174 0.13057344 0.058124654 0.047426034 0.047426034 0.05137846 0.05137846 0.04710775 0.04710775 0.07091692 0.051645532 0.15067698 0.17398144 0.17149134 0.41399315

$$$$
CHEMBL1084431
     RDKit          3D

 71 75  0  0  0  0  0  0  0  0999 V2000
   20.4061   -3.7657    7.9254 C   0  0  0  0  0  0  0  0  0  0  0  0
   18.9124   -3.9931    7.7765 C   0  0  0  0  0  0  0  0  0  0  0  0
   18.0258   -2.9250    7.9026 C   0  0  0  0  0  0  0  0  0  0  0  0
   16.6577   -3.1320    7.7478 C   0  0  0  0  0  0  0  0  0  0  0  0
   16.1648   -4.4081    7.4449 C   0  0  0  0  0  0  0  0  0  0  0  0
   14.6878   -4.6643    7.2329 C   0  0  0  0  0  0  0  0  0  0  0  0
   14.1939   -5.6634    7.7631 O   0  0  0  0  0  0  0  0  0  0  0  0
   13.9487   -3.8243    6.4460 N   0  0  0  0  0  0  0  0  0  0  0  0
   12.4795   -4.0242    6.4012 C   0  0  0  0  0  0  0  0  0  0  0  0
   11.6019   -2.8223    6.0038 C   0  0  0  0  0  0  0  0  0  0  0  0
   11.3321   -2.8831    4.4934 N   0  0  0  0  0  0  0  0  0  0  0  0
   14.5613   -2.9978    5.3800 C   0  0  0  0  0  0  0  0  0  0  0  0
   14.7961   -3.6692    4.0001 C   0  0  1  0  0  0  0  0  0  0  0  0
   15.0811   -5.1931    4.0309 C   0  0  0  0  0  0  0  0  0  0  0  0
   15.2403   -5.7746    2.6172 C   0  0  0  0  0  0  0  0  0  0  0  0
   14.1077   -5.3260    1.6628 C   0  0  1  0  0  0  0  0  0  0  0  0
   12.7413   -6.0318    1.9021 C   0  0  2  0  0  0  0  0  0  0  0  0
   12.8422   -7.5568    1.8513 C   0  0  0  0  0  0  0  0  0  0  0  0
   12.4533   -8.3229    2.9526 C   0  0  0  0  0  0  0  0  0  0  0  0
   12.5253   -9.7125    2.8926 C   0  0  0  0  0  0  0  0  0  0  0  0
   12.9477  -10.3381    1.7271 C   0  0  0  0  0  0  0  0  0  0  0  0
   13.3353   -9.5811    0.6254 C   0  0  0  0  0  0  0  0  0  0  0  0
   13.3108   -8.1934    0.6978 C   0  0  0  0  0  0  0  0  0  0  0  0
   11.7319   -5.5273    0.9660 N   0  0  0  0  0  0  0  0  0  0  0  0
   11.7370   -4.1806    0.5580 C   0  0  0  0  0  0  0  0  0  0  0  0
   10.6892   -3.7238   -0.2418 C   0  0  0  0  0  0  0  0  0  0  0  0
   10.6688   -2.4058   -0.6876 C   0  0  0  0  0  0  0  0  0  0  0  0
   11.6907   -1.5255   -0.3218 C   0  0  0  0  0  0  0  0  0  0  0  0
   11.7117   -0.0976   -0.8567 C   0  0  0  0  0  0  0  0  0  0  0  0
   12.2908    0.7357    0.0080 F   0  0  0  0  0  0  0  0  0  0  0  0
   12.4102   -0.0772   -1.9917 F   0  0  0  0  0  0  0  0  0  0  0  0
   10.4766    0.3334   -1.1054 F   0  0  0  0  0  0  0  0  0  0  0  0
   12.7176   -1.9787    0.5071 C   0  0  0  0  0  0  0  0  0  0  0  0
   12.7770   -3.3077    0.9323 C   0  0  0  0  0  0  0  0  0  0  0  0
   13.9477   -3.7906    1.7717 C   0  0  1  0  0  0  0  0  0  0  0  0
   13.6969   -3.4009    3.1267 O   0  0  0  0  0  0  0  0  0  0  0  0
   17.0605   -5.4838    7.3765 C   0  0  0  0  0  0  0  0  0  0  0  0
   18.4268   -5.2802    7.5326 C   0  0  0  0  0  0  0  0  0  0  0  0
   20.8966   -4.6385    8.3533 H   0  0  0  0  0  0  0  0  0  0  0  0
   20.6157   -2.9273    8.5942 H   0  0  0  0  0  0  0  0  0  0  0  0
   20.8541   -3.5552    6.9542 H   0  0  0  0  0  0  0  0  0  0  0  0
   18.3892   -1.9293    8.1145 H   0  0  0  0  0  0  0  0  0  0  0  0
   15.9889   -2.2922    7.8543 H   0  0  0  0  0  0  0  0  0  0  0  0
   12.2659   -4.8647    5.7368 H   0  0  0  0  0  0  0  0  0  0  0  0
   12.1472   -4.3462    7.3894 H   0  0  0  0  0  0  0  0  0  0  0  0
   10.6031   -2.8770    6.4480 H   0  0  0  0  0  0  0  0  0  0  0  0
   12.0431   -1.8456    6.2206 H   0  0  0  0  0  0  0  0  0  0  0  0
   10.7298   -2.1320    4.1414 H   0  0  0  0  0  0  0  0  0  0  0  0
   10.8553   -3.7530    4.2874 H   0  0  0  0  0  0  0  0  0  0  0  0
   13.9811   -2.0922    5.2324 H   0  0  0  0  0  0  0  0  0  0  0  0
   15.5298   -2.6261    5.6945 H   0  0  0  0  0  0  0  0  0  0  0  0
   15.6700   -3.1564    3.5927 H   0  0  0  0  0  0  0  0  0  0  0  0
   15.9914   -5.3897    4.6001 H   0  0  0  0  0  0  0  0  0  0  0  0
   14.2785   -5.7188    4.5518 H   0  0  0  0  0  0  0  0  0  0  0  0
   16.1963   -5.4430    2.2066 H   0  0  0  0  0  0  0  0  0  0  0  0
   15.3123   -6.8623    2.6711 H   0  0  0  0  0  0  0  0  0  0  0  0
   14.4375   -5.5427    0.6447 H   0  0  0  0  0  0  0  0  0  0  0  0
   12.3821   -5.7716    2.9017 H   0  0  0  0  0  0  0  0  0  0  0  0
   12.0964   -7.8495    3.8566 H   0  0  0  0  0  0  0  0  0  0  0  0
   12.2295  -10.3081    3.7462 H   0  0  0  0  0  0  0  0  0  0  0  0
   12.9787  -11.4176    1.6762 H   0  0  0  0  0  0  0  0  0  0  0  0
   13.6722  -10.0595   -0.2817 H   0  0  0  0  0  0  0  0  0  0  0  0
   13.6137   -7.6139   -0.1606 H   0  0  0  0  0  0  0  0  0  0  0  0
   10.8780   -6.0664    0.9477 H   0  0  0  0  0  0  0  0  0  0  0  0
    9.8977   -4.3963   -0.5354 H   0  0  0  0  0  0  0  0  0  0  0  0
    9.8632   -2.0699   -1.3224 H   0  0  0  0  0  0  0  0  0  0  0  0
   13.5136   -1.3007    0.7868 H   0  0  0  0  0  0  0  0  0  0  0  0
   14.8593   -3.3099    1.4053 H   0  0  0  0  0  0  0  0  0  0  0  0
   16.7009   -6.4861    7.1830 H   0  0  0  0  0  0  0  0  0  0  0  0
   19.1055   -6.1201    7.4605 H   0  0  0  0  0  0  0  0  0  0  0  0
   12.1955   -2.8872    3.9543 H   0  0  0  0  0  0  0  0  0  0  0  0
  1  2  1  0
  1 39  1  0
  1 40  1  0
  1 41  1  0
  2  3  2  0
  2 38  1  0
  3  4  1  0
  3 42  1  0
  4  5  2  0
  4 43  1  0
  5  6  1  0
  5 37  1  0
  6  7  2  0
  6  8  1  0
  8  9  1  0
  8 12  1  0
  9 10  1  0
  9 44  1  0
  9 45  1  0
 10 11  1  0
 10 46  1  0
 10 47  1  0
 11 48  1  0
 11 49  1  0
 11 71  1  0
 12 13  1  0
 12 50  1  0
 12 51  1  0
 13 14  1  0
 13 36  1  0
 13 52  1  6
 14 15  1  0
 14 53  1  0
 14 54  1  0
 15 16  1  0
 15 55  1  0
 15 56  1  0
 16 17  1  0
 16 35  1  0
 16 57  1  6
 17 18  1  0
 17 24  1  0
 17 58  1  1
 18 19  2  0
 18 23  1  0
 19 20  1  0
 19 59  1  0
 20 21  2  0
 20 60  1  0
 21 22  1  0
 21 61  1  0
 22 23  2  0
 22 62  1  0
 23 63  1  0
 24 25  1  0
 24 64  1  0
 25 26  2  0
 25 34  1  0
 26 27  1  0
 26 65  1  0
 27 28  2  0
 27 66  1  0
 28 29  1  0
 28 33  1  0
 29 30  1  0
 29 31  1  0
 29 32  1  0
 33 34  2  0
 33 67  1  0
 34 35  1  0
 35 36  1  0
 35 68  1  6
 37 38  2  0
 37 69  1  0
 38 70  1  0
M  CHG  1  11   1
M  END
>  <ID>  (10) 
CHEMBL1084431

>  <IC50[nM]>  (10) 
65

>  <kcal/mol experimental dG>  (10) 
-9.865858249826928

>  <kJ/mol experimental dG>  (10) 
-41.27875091727587

>  <experimental dG reference field>  (10) 
IC50[nM]

>  <experimental dG reference units>  (10) 
nM

>  <atom.dprop.PartialCharge>  (10) 
-0.05412106 -0.05784015 -0.1277057 -0.08488834 -0.15499961 0.68365383 -0.58107877 -0.49939138 0.09568398 0.056267485 -0.8430663 0.06852691 0.11356894 -0.100497074 -0.07455883 -0.09555584 0.28004476 -0.09155272 -0.109821394 -0.12928353 -0.115940064 -0.12928353 -0.109821394 -0.7292458 0.21487816 -0.19708107 -0.03479671 -0.21922107 0.69018215 -0.23392421 -0.23392421 -0.23392421 -0.029139977 -0.16936931 0.20379062 -0.39209768 -0.08488834 -0.1277057 0.050749697 0.050749697 0.050749697 0.13871488 0.14718932 0.063927926 0.063927926 0.10938491 0.10938491 0.45806074 0.45806074 0.078753404 0.078753404 0.05251935 0.06356153 0.06356153 0.054656707 0.054656707 0.07826383 0.05184648 0.13847171 0.13971093 0.13894328 0.13971093 0.13847171 0.4171311 0.14324532 0.14976595 0.14559075 0.06564656 0.14718932 0.13871488 0.45806074

$$$$
CHEMBL1085895
     RDKit          3D

 61 64  0  0  0  0  0  0  0  0999 V2000
   16.4467   -4.4109    7.4249 O   0  0  0  0  0  0  0  0  0  0  0  0
   15.2351   -4.6139    7.4730 C   0  0  0  0  0  0  0  0  0  0  0  0
   14.6650   -5.5529    8.2387 N   0  0  0  0  0  0  0  0  0  0  0  0
   15.3869   -6.4361    9.1585 C   0  0  0  0  0  0  0  0  0  0  0  0
   15.2668   -6.0328   10.6455 C   0  0  0  0  0  0  0  0  0  0  0  0
   13.8226   -5.9803   11.1627 C   0  0  0  0  0  0  0  0  0  0  0  0
   13.1566   -4.8684   10.5881 O   0  0  0  0  0  0  0  0  0  0  0  0
   14.3343   -3.9820    6.7011 N   0  0  0  0  0  0  0  0  0  0  0  0
   14.6936   -3.0974    5.5864 C   0  0  0  0  0  0  0  0  0  0  0  0
   14.8991   -3.7794    4.2042 C   0  0  1  0  0  0  0  0  0  0  0  0
   15.0796   -5.3216    4.2396 C   0  0  0  0  0  0  0  0  0  0  0  0
   15.2170   -5.9056    2.8282 C   0  0  0  0  0  0  0  0  0  0  0  0
   14.0982   -5.4118    1.8834 C   0  0  1  0  0  0  0  0  0  0  0  0
   12.7071   -6.0676    2.1263 C   0  0  2  0  0  0  0  0  0  0  0  0
   12.7538   -7.5905    2.0348 C   0  0  0  0  0  0  0  0  0  0  0  0
   12.3222   -8.3753    3.1056 C   0  0  0  0  0  0  0  0  0  0  0  0
   12.3985   -9.7635    3.0200 C   0  0  0  0  0  0  0  0  0  0  0  0
   12.9019  -10.3648    1.8691 C   0  0  0  0  0  0  0  0  0  0  0  0
   13.3224   -9.5891    0.7939 C   0  0  0  0  0  0  0  0  0  0  0  0
   13.2458   -8.2037    0.8776 C   0  0  0  0  0  0  0  0  0  0  0  0
   11.7300   -5.5199    1.1852 N   0  0  0  0  0  0  0  0  0  0  0  0
   11.7894   -4.1781    0.7704 C   0  0  0  0  0  0  0  0  0  0  0  0
   10.7703   -3.7089   -0.0567 C   0  0  0  0  0  0  0  0  0  0  0  0
   10.8105   -2.4059   -0.5418 C   0  0  0  0  0  0  0  0  0  0  0  0
   11.8590   -1.5551   -0.1897 C   0  0  0  0  0  0  0  0  0  0  0  0
   11.9086   -0.1381   -0.7474 C   0  0  0  0  0  0  0  0  0  0  0  0
   10.6756    0.3312   -0.9261 F   0  0  0  0  0  0  0  0  0  0  0  0
   12.5656    0.6893    0.0654 F   0  0  0  0  0  0  0  0  0  0  0  0
   12.5316   -0.1600   -1.9259 F   0  0  0  0  0  0  0  0  0  0  0  0
   12.8601   -2.0232    0.6679 C   0  0  0  0  0  0  0  0  0  0  0  0
   12.8600   -3.3430    1.1355 C   0  0  0  0  0  0  0  0  0  0  0  0
   14.0117   -3.8696    1.9810 C   0  0  1  0  0  0  0  0  0  0  0  0
   13.8055   -3.4605    3.3355 O   0  0  0  0  0  0  0  0  0  0  0  0
   13.6582   -5.5705    8.3023 H   0  0  0  0  0  0  0  0  0  0  0  0
   14.9279   -7.4158    9.0362 H   0  0  0  0  0  0  0  0  0  0  0  0
   16.4371   -6.5451    8.8797 H   0  0  0  0  0  0  0  0  0  0  0  0
   15.8294   -6.7485   11.2505 H   0  0  0  0  0  0  0  0  0  0  0  0
   15.7509   -5.0717   10.8267 H   0  0  0  0  0  0  0  0  0  0  0  0
   13.3103   -6.8986   10.8617 H   0  0  0  0  0  0  0  0  0  0  0  0
   13.8037   -5.9486   12.2545 H   0  0  0  0  0  0  0  0  0  0  0  0
   12.3548   -4.6854   11.0876 H   0  0  0  0  0  0  0  0  0  0  0  0
   13.3526   -4.1690    6.8347 H   0  0  0  0  0  0  0  0  0  0  0  0
   13.9202   -2.3332    5.5075 H   0  0  0  0  0  0  0  0  0  0  0  0
   15.5994   -2.5443    5.8485 H   0  0  0  0  0  0  0  0  0  0  0  0
   15.8025   -3.3267    3.7880 H   0  0  0  0  0  0  0  0  0  0  0  0
   15.9600   -5.5867    4.8260 H   0  0  0  0  0  0  0  0  0  0  0  0
   14.2304   -5.7872    4.7430 H   0  0  0  0  0  0  0  0  0  0  0  0
   16.1836   -5.6053    2.4186 H   0  0  0  0  0  0  0  0  0  0  0  0
   15.2476   -6.9928    2.8841 H   0  0  0  0  0  0  0  0  0  0  0  0
   14.4127   -5.6391    0.8639 H   0  0  0  0  0  0  0  0  0  0  0  0
   12.3723   -5.8162    3.1365 H   0  0  0  0  0  0  0  0  0  0  0  0
   11.9359   -7.9127    4.0028 H   0  0  0  0  0  0  0  0  0  0  0  0
   12.0683  -10.3720    3.8500 H   0  0  0  0  0  0  0  0  0  0  0  0
   12.9496  -11.4422    1.8040 H   0  0  0  0  0  0  0  0  0  0  0  0
   13.6904  -10.0586   -0.1062 H   0  0  0  0  0  0  0  0  0  0  0  0
   13.5615   -7.6046    0.0370 H   0  0  0  0  0  0  0  0  0  0  0  0
   10.9273   -6.1033    0.9966 H   0  0  0  0  0  0  0  0  0  0  0  0
    9.9481   -4.3512   -0.3337 H   0  0  0  0  0  0  0  0  0  0  0  0
   10.0229   -2.0607   -1.1956 H   0  0  0  0  0  0  0  0  0  0  0  0
   13.6834   -1.3760    0.9343 H   0  0  0  0  0  0  0  0  0  0  0  0
   14.9403   -3.4348    1.6035 H   0  0  0  0  0  0  0  0  0  0  0  0
  1  2  2  0
  2  3  1  0
  2  8  1  0
  3  4  1  0
  3 34  1  0
  4  5  1  0
  4 35  1  0
  4 36  1  0
  5  6  1  0
  5 37  1  0
  5 38  1  0
  6  7  1  0
  6 39  1  0
  6 40  1  0
  7 41  1  0
  8  9  1  0
  8 42  1  0
  9 10  1  0
  9 43  1  0
  9 44  1  0
 10 11  1  0
 10 33  1  0
 10 45  1  6
 11 12  1  0
 11 46  1  0
 11 47  1  0
 12 13  1  0
 12 48  1  0
 12 49  1  0
 13 14  1  0
 13 32  1  0
 13 50  1  6
 14 15  1  0
 14 21  1  0
 14 51  1  1
 15 16  2  0
 15 20  1  0
 16 17  1  0
 16 52  1  0
 17 18  2  0
 17 53  1  0
 18 19  1  0
 18 54  1  0
 19 20  2  0
 19 55  1  0
 20 56  1  0
 21 22  1  0
 21 57  1  0
 22 23  2  0
 22 31  1  0
 23 24  1  0
 23 58  1  0
 24 25  2  0
 24 59  1  0
 25 26  1  0
 25 30  1  0
 26 27  1  0
 26 28  1  0
 26 29  1  0
 30 31  2  0
 30 60  1  0
 31 32  1  0
 32 33  1  0
 32 61  1  6
M  END
>  <ID>  (11) 
CHEMBL1085895

>  <IC50[nM]>  (11) 
11

>  <kcal/mol experimental dG>  (11) 
-10.924940178206626

>  <kJ/mol experimental dG>  (11) 
-45.70994970561652

>  <experimental dG reference field>  (11) 
IC50[nM]

>  <experimental dG reference units>  (11) 
nM

>  <atom.dprop.PartialCharge>  (11) 
-0.6386565 0.77045155 -0.5768158 0.100099966 -0.11324614 0.1330117 -0.5956745 -0.57564473 0.09851228 0.119871065 -0.107195854 -0.077669576 -0.097317904 0.27655613 -0.095041804 -0.1133103 -0.1327726 -0.11942905 -0.1327726 -0.1133103 -0.7327362 0.21138963 -0.20057029 -0.038285535 -0.22271024 0.6866929 -0.23741403 -0.23741403 -0.23741403 -0.032628912 -0.17221338 0.20386694 -0.39984542 0.2978075 0.058263116 0.058263116 0.06292792 0.06292792 0.026152175 0.026152175 0.40226763 0.2997394 0.069809556 0.069809556 0.04678002 0.055725582 0.055725582 0.051891997 0.051891997 0.07477471 0.04835747 0.13498256 0.13622169 0.13545409 0.13622169 0.13498256 0.4136421 0.13975608 0.1462768 0.14210165 0.060730845

$$$$
CHEMBL1084677
     RDKit          3D

 62 65  0  0  0  0  0  0  0  0999 V2000
   16.1912   -7.7412   11.8466 C   0  0  0  0  0  0  0  0  0  0  0  0
   15.1910   -6.9123   11.0170 N   0  0  0  0  0  0  0  0  0  0  0  0
   15.9171   -5.9921   10.0050 C   0  0  0  0  0  0  0  0  0  0  0  0
   14.8572   -5.3740    9.0989 C   0  0  0  0  0  0  0  0  0  0  0  0
   15.6866   -4.1881    7.8512 S   0  0  0  0  0  6  0  0  0  0  0  0
   15.9605   -2.8994    8.4965 O   0  0  0  0  0  0  0  0  0  0  0  0
   16.7692   -4.9053    7.1723 O   0  0  0  0  0  0  0  0  0  0  0  0
   14.3931   -3.9357    6.7113 N   0  0  0  0  0  0  0  0  0  0  0  0
   14.7292   -3.0772    5.5493 C   0  0  0  0  0  0  0  0  0  0  0  0
   14.9090   -3.7899    4.1939 C   0  0  1  0  0  0  0  0  0  0  0  0
   15.0802   -5.3264    4.2516 C   0  0  0  0  0  0  0  0  0  0  0  0
   15.2184   -5.9103    2.8356 C   0  0  0  0  0  0  0  0  0  0  0  0
   14.1038   -5.4145    1.8827 C   0  0  1  0  0  0  0  0  0  0  0  0
   12.7108   -6.0690    2.1214 C   0  0  2  0  0  0  0  0  0  0  0  0
   12.7593   -7.5926    2.0373 C   0  0  0  0  0  0  0  0  0  0  0  0
   12.3256   -8.3763    3.1078 C   0  0  0  0  0  0  0  0  0  0  0  0
   12.4034   -9.7655    3.0228 C   0  0  0  0  0  0  0  0  0  0  0  0
   12.9076  -10.3673    1.8725 C   0  0  0  0  0  0  0  0  0  0  0  0
   13.3297   -9.5928    0.7978 C   0  0  0  0  0  0  0  0  0  0  0  0
   13.2528   -8.2067    0.8813 C   0  0  0  0  0  0  0  0  0  0  0  0
   11.7374   -5.5233    1.1763 N   0  0  0  0  0  0  0  0  0  0  0  0
   11.7936   -4.1831    0.7614 C   0  0  0  0  0  0  0  0  0  0  0  0
   10.7743   -3.7096   -0.0570 C   0  0  0  0  0  0  0  0  0  0  0  0
   10.8089   -2.4050   -0.5396 C   0  0  0  0  0  0  0  0  0  0  0  0
   11.8578   -1.5536   -0.1865 C   0  0  0  0  0  0  0  0  0  0  0  0
   11.9038   -0.1354   -0.7457 C   0  0  0  0  0  0  0  0  0  0  0  0
   10.6704    0.3354   -0.9312 F   0  0  0  0  0  0  0  0  0  0  0  0
   12.5538    0.6943    0.0706 F   0  0  0  0  0  0  0  0  0  0  0  0
   12.5323   -0.1555   -1.9215 F   0  0  0  0  0  0  0  0  0  0  0  0
   12.8594   -2.0221    0.6688 C   0  0  0  0  0  0  0  0  0  0  0  0
   12.8662   -3.3440    1.1312 C   0  0  0  0  0  0  0  0  0  0  0  0
   14.0156   -3.8719    1.9779 C   0  0  1  0  0  0  0  0  0  0  0  0
   13.8095   -3.4697    3.3345 O   0  0  0  0  0  0  0  0  0  0  0  0
   15.6079   -8.3192   12.5593 H   0  0  0  0  0  0  0  0  0  0  0  0
   16.8422   -7.0180   12.3360 H   0  0  0  0  0  0  0  0  0  0  0  0
   16.7252   -8.3672   11.1323 H   0  0  0  0  0  0  0  0  0  0  0  0
   14.5471   -7.5260   10.5314 H   0  0  0  0  0  0  0  0  0  0  0  0
   16.4848   -5.2614   10.5795 H   0  0  0  0  0  0  0  0  0  0  0  0
   16.6028   -6.6401    9.4590 H   0  0  0  0  0  0  0  0  0  0  0  0
   14.3005   -6.1177    8.5318 H   0  0  0  0  0  0  0  0  0  0  0  0
   14.1328   -4.8034    9.6822 H   0  0  0  0  0  0  0  0  0  0  0  0
   13.9458   -4.8155    6.4388 H   0  0  0  0  0  0  0  0  0  0  0  0
   13.9602   -2.3095    5.4481 H   0  0  0  0  0  0  0  0  0  0  0  0
   15.6378   -2.5432    5.8251 H   0  0  0  0  0  0  0  0  0  0  0  0
   15.8078   -3.3352    3.7720 H   0  0  0  0  0  0  0  0  0  0  0  0
   15.9578   -5.5895    4.8417 H   0  0  0  0  0  0  0  0  0  0  0  0
   14.2267   -5.7829    4.7558 H   0  0  0  0  0  0  0  0  0  0  0  0
   16.1860   -5.6147    2.4228 H   0  0  0  0  0  0  0  0  0  0  0  0
   15.2464   -6.9974    2.8926 H   0  0  0  0  0  0  0  0  0  0  0  0
   14.4218   -5.6358    0.8626 H   0  0  0  0  0  0  0  0  0  0  0  0
   12.3662   -5.8168    3.1277 H   0  0  0  0  0  0  0  0  0  0  0  0
   11.9339   -7.9169    4.0042 H   0  0  0  0  0  0  0  0  0  0  0  0
   12.0706  -10.3738    3.8521 H   0  0  0  0  0  0  0  0  0  0  0  0
   12.9509  -11.4449    1.8045 H   0  0  0  0  0  0  0  0  0  0  0  0
   13.6962  -10.0604   -0.1030 H   0  0  0  0  0  0  0  0  0  0  0  0
   13.5656   -7.6086    0.0393 H   0  0  0  0  0  0  0  0  0  0  0  0
   10.8964   -6.0776    1.0669 H   0  0  0  0  0  0  0  0  0  0  0  0
    9.9514   -4.3520   -0.3355 H   0  0  0  0  0  0  0  0  0  0  0  0
   10.0217   -2.0639   -1.1957 H   0  0  0  0  0  0  0  0  0  0  0  0
   13.6843   -1.3740    0.9344 H   0  0  0  0  0  0  0  0  0  0  0  0
   14.9446   -3.4365    1.6004 H   0  0  0  0  0  0  0  0  0  0  0  0
   14.6360   -6.3283   11.6396 H   0  0  0  0  0  0  0  0  0  0  0  0
  1  2  1  0
  1 34  1  0
  1 35  1  0
  1 36  1  0
  2  3  1  0
  2 37  1  0
  2 62  1  0
  3  4  1  0
  3 38  1  0
  3 39  1  0
  4  5  1  0
  4 40  1  0
  4 41  1  0
  5  6  2  0
  5  7  2  0
  5  8  1  0
  8  9  1  0
  8 42  1  0
  9 10  1  0
  9 43  1  0
  9 44  1  0
 10 11  1  0
 10 33  1  0
 10 45  1  6
 11 12  1  0
 11 46  1  0
 11 47  1  0
 12 13  1  0
 12 48  1  0
 12 49  1  0
 13 14  1  0
 13 32  1  0
 13 50  1  6
 14 15  1  0
 14 21  1  0
 14 51  1  1
 15 16  2  0
 15 20  1  0
 16 17  1  0
 16 52  1  0
 17 18  2  0
 17 53  1  0
 18 19  1  0
 18 54  1  0
 19 20  2  0
 19 55  1  0
 20 56  1  0
 21 22  1  0
 21 57  1  0
 22 23  2  0
 22 31  1  0
 23 24  1  0
 23 58  1  0
 24 25  2  0
 24 59  1  0
 25 26  1  0
 25 30  1  0
 26 27  1  0
 26 28  1  0
 26 29  1  0
 30 31  2  0
 30 60  1  0
 31 32  1  0
 32 33  1  0
 32 61  1  6
M  CHG  1   2   1
M  END
>  <ID>  (12) 
CHEMBL1084677

>  <IC50[nM]>  (12) 
4

>  <kcal/mol experimental dG>  (12) 
-11.52802099480568

>  <kJ/mol experimental dG>  (12) 
-48.23323984226696

>  <experimental dG reference field>  (12) 
IC50[nM]

>  <experimental dG reference units>  (12) 
nM

>  <atom.dprop.PartialCharge>  (12) 
0.07284592 -0.77080464 0.14913821 -0.34386185 1.4789268 -0.624263 -0.624263 -0.92793345 0.21344651 0.12700656 -0.10082321 -0.07373342 -0.09377716 0.2805994 -0.090998024 -0.10926671 -0.12872884 -0.115385376 -0.12872884 -0.10926671 -0.7286909 0.21543276 -0.19652635 -0.03424205 -0.21866636 0.6907369 -0.23336938 -0.23336938 -0.23336938 -0.028585296 -0.16850099 0.20771103 -0.3935148 0.10924609 0.10924609 0.10924609 0.4485896 0.11418475 0.11418475 0.10328465 0.10328465 0.45061147 0.062081467 0.062081467 0.053514607 0.06130486 0.06130486 0.05589378 0.05589378 0.07881853 0.052401174 0.13902643 0.14026564 0.13949801 0.14026564 0.13902643 0.4176858 0.14380005 0.15032066 0.14614546 0.06502863 0.4485896

$$$$
CHEMBL1077227
     RDKit          3D

 57 60  0  0  0  0  0  0  0  0999 V2000
   15.2899   -4.6440    7.5351 C   0  0  0  0  0  0  0  0  0  0  0  0
   14.2408   -3.9683    6.6690 N   0  0  0  0  0  0  0  0  0  0  0  0
   14.7206   -3.0566    5.5418 C   0  0  0  0  0  0  0  0  0  0  0  0
   14.8984   -3.7855    4.1902 C   0  0  1  0  0  0  0  0  0  0  0  0
   15.0728   -5.3257    4.2388 C   0  0  0  0  0  0  0  0  0  0  0  0
   15.2134   -5.9104    2.8261 C   0  0  0  0  0  0  0  0  0  0  0  0
   14.0958   -5.4095    1.8827 C   0  0  1  0  0  0  0  0  0  0  0  0
   12.7022   -6.0636    2.1368 C   0  0  2  0  0  0  0  0  0  0  0  0
   12.7070   -7.5842    2.0907 C   0  0  0  0  0  0  0  0  0  0  0  0
   12.2595   -8.4762    3.0628 C   0  0  0  0  0  0  0  0  0  0  0  0
   12.4745   -9.8243    2.7647 C   0  0  0  0  0  0  0  0  0  0  0  0
   13.0252  -10.0075    1.5129 C   0  0  0  0  0  0  0  0  0  0  0  0
   13.3330   -8.4922    0.7364 S   0  0  0  0  0  0  0  0  0  0  0  0
   11.6991   -5.5164    1.2216 N   0  0  0  0  0  0  0  0  0  0  0  0
   11.7868   -4.1856    0.7799 C   0  0  0  0  0  0  0  0  0  0  0  0
   10.7738   -3.7177   -0.0535 C   0  0  0  0  0  0  0  0  0  0  0  0
   10.8219   -2.4249   -0.5507 C   0  0  0  0  0  0  0  0  0  0  0  0
   11.8669   -1.5627   -0.1974 C   0  0  0  0  0  0  0  0  0  0  0  0
   11.9198   -0.1294   -0.7526 C   0  0  0  0  0  0  0  0  0  0  0  0
   10.4882    0.3797   -0.9919 C   0  0  0  0  0  0  0  0  0  0  0  0
   12.6705   -0.0930   -2.0912 C   0  0  0  0  0  0  0  0  0  0  0  0
   12.6599    0.8143    0.2183 C   0  0  0  0  0  0  0  0  0  0  0  0
   12.8580   -2.0372    0.6716 C   0  0  0  0  0  0  0  0  0  0  0  0
   12.8622   -3.3514    1.1382 C   0  0  0  0  0  0  0  0  0  0  0  0
   14.0094   -3.8677    1.9934 C   0  0  1  0  0  0  0  0  0  0  0  0
   13.7960   -3.4623    3.3445 O   0  0  0  0  0  0  0  0  0  0  0  0
   14.6664   -5.2237    8.2169 H   0  0  0  0  0  0  0  0  0  0  0  0
   15.8523   -3.8448    8.0176 H   0  0  0  0  0  0  0  0  0  0  0  0
   15.8748   -5.2649    6.8653 H   0  0  0  0  0  0  0  0  0  0  0  0
   13.7110   -4.7018    6.2296 H   0  0  0  0  0  0  0  0  0  0  0  0
   13.9057   -2.3303    5.5154 H   0  0  0  0  0  0  0  0  0  0  0  0
   15.6371   -2.5924    5.9000 H   0  0  0  0  0  0  0  0  0  0  0  0
   15.7935   -3.3529    3.7429 H   0  0  0  0  0  0  0  0  0  0  0  0
   15.9485   -5.5941    4.8268 H   0  0  0  0  0  0  0  0  0  0  0  0
   14.2142   -5.7907    4.7217 H   0  0  0  0  0  0  0  0  0  0  0  0
   16.1837   -5.6238    2.4135 H   0  0  0  0  0  0  0  0  0  0  0  0
   15.2279   -6.9978    2.8763 H   0  0  0  0  0  0  0  0  0  0  0  0
   14.4053   -5.6215    0.8588 H   0  0  0  0  0  0  0  0  0  0  0  0
   12.3641   -5.7750    3.1321 H   0  0  0  0  0  0  0  0  0  0  0  0
   11.8117   -8.1486    3.9889 H   0  0  0  0  0  0  0  0  0  0  0  0
   12.2118  -10.6326    3.4332 H   0  0  0  0  0  0  0  0  0  0  0  0
   13.2650  -10.9429    1.0257 H   0  0  0  0  0  0  0  0  0  0  0  0
   10.7720   -5.8918    1.3809 H   0  0  0  0  0  0  0  0  0  0  0  0
    9.9477   -4.3525   -0.3357 H   0  0  0  0  0  0  0  0  0  0  0  0
   10.0337   -2.1012   -1.2145 H   0  0  0  0  0  0  0  0  0  0  0  0
   10.4127    1.4448   -1.0125 H   0  0  0  0  0  0  0  0  0  0  0  0
    9.8181    0.0700   -0.2204 H   0  0  0  0  0  0  0  0  0  0  0  0
   10.0518    0.0158   -1.8864 H   0  0  0  0  0  0  0  0  0  0  0  0
   12.1527   -0.6813   -2.8327 H   0  0  0  0  0  0  0  0  0  0  0  0
   13.6843   -0.4720   -2.0012 H   0  0  0  0  0  0  0  0  0  0  0  0
   12.7560    0.9141   -2.4864 H   0  0  0  0  0  0  0  0  0  0  0  0
   12.5165    1.8671   -0.0212 H   0  0  0  0  0  0  0  0  0  0  0  0
   13.7282    0.6208    0.2096 H   0  0  0  0  0  0  0  0  0  0  0  0
   12.3734    0.6364    1.2460 H   0  0  0  0  0  0  0  0  0  0  0  0
   13.6663   -1.3913    0.9779 H   0  0  0  0  0  0  0  0  0  0  0  0
   14.9478   -3.4140    1.6615 H   0  0  0  0  0  0  0  0  0  0  0  0
   13.6614   -3.4199    7.2878 H   0  0  0  0  0  0  0  0  0  0  0  0
  1  2  1  0
  1 27  1  0
  1 28  1  0
  1 29  1  0
  2  3  1  0
  2 30  1  0
  2 57  1  0
  3  4  1  0
  3 31  1  0
  3 32  1  0
  4  5  1  0
  4 26  1  0
  4 33  1  6
  5  6  1  0
  5 34  1  0
  5 35  1  0
  6  7  1  0
  6 36  1  0
  6 37  1  0
  7  8  1  0
  7 25  1  0
  7 38  1  6
  8  9  1  0
  8 14  1  0
  8 39  1  1
  9 10  2  0
  9 13  1  0
 10 11  1  0
 10 40  1  0
 11 12  2  0
 11 41  1  0
 12 13  1  0
 12 42  1  0
 14 15  1  0
 14 43  1  0
 15 16  2  0
 15 24  1  0
 16 17  1  0
 16 44  1  0
 17 18  2  0
 17 45  1  0
 18 19  1  0
 18 23  1  0
 19 20  1  0
 19 21  1  0
 19 22  1  0
 20 46  1  0
 20 47  1  0
 20 48  1  0
 21 49  1  0
 21 50  1  0
 21 51  1  0
 22 52  1  0
 22 53  1  0
 22 54  1  0
 23 24  2  0
 23 55  1  0
 24 25  1  0
 25 26  1  0
 25 56  1  6
M  CHG  1   2   1
M  END
>  <ID>  (13) 
CHEMBL1077227

>  <IC50[nM]>  (13) 
5

>  <kcal/mol experimental dG>  (13) 
-11.394990672677858

>  <kJ/mol experimental dG>  (13) 
-47.67664097448416

>  <experimental dG reference field>  (13) 
IC50[nM]

>  <experimental dG reference units>  (13) 
nM

>  <atom.dprop.PartialCharge>  (13) 
0.07950924 -0.7585833 0.090892136 0.12202993 -0.111743644 -0.08157823 -0.100205645 0.3193599 -0.1426097 -0.13839509 -0.15378231 -0.18311337 0.06999673 -0.7374715 0.17473508 -0.1819812 -0.07993914 -0.094562516 -0.0038120113 -0.079635754 -0.079635754 -0.079635754 -0.07413377 -0.15785836 0.20712298 -0.43395695 0.1078646 0.1078646 0.1078646 0.45112658 0.11405498 0.11405498 0.056505606 0.054866046 0.054866046 0.06382747 0.06382747 0.07883839 0.057743795 0.15687853 0.15505415 0.17526558 0.41852695 0.1346579 0.13611811 0.040700197 0.040700197 0.040700197 0.040700197 0.040700197 0.040700197 0.040700197 0.040700197 0.040700197 0.13532878 0.046424706 0.45112658

$$$$
CHEMBL1086410
     RDKit          3D

 60 63  0  0  0  0  0  0  0  0999 V2000
   15.2901   -4.6437    7.5383 C   0  0  0  0  0  0  0  0  0  0  0  0
   14.2345   -3.9601    6.6829 N   0  0  0  0  0  0  0  0  0  0  0  0
   14.7221   -3.0583    5.5490 C   0  0  0  0  0  0  0  0  0  0  0  0
   14.8999   -3.7840    4.1926 C   0  0  1  0  0  0  0  0  0  0  0  0
   15.0700   -5.3255    4.2383 C   0  0  0  0  0  0  0  0  0  0  0  0
   15.2153   -5.9091    2.8263 C   0  0  0  0  0  0  0  0  0  0  0  0
   14.0983   -5.4050    1.8842 C   0  0  1  0  0  0  0  0  0  0  0  0
   12.7057   -6.0670    2.1305 C   0  0  2  0  0  0  0  0  0  0  0  0
   12.7531   -7.5892    2.0317 C   0  0  0  0  0  0  0  0  0  0  0  0
   12.3225   -8.3747    3.1029 C   0  0  0  0  0  0  0  0  0  0  0  0
   12.3958   -9.7629    3.0192 C   0  0  0  0  0  0  0  0  0  0  0  0
   12.8972  -10.3629    1.8676 C   0  0  0  0  0  0  0  0  0  0  0  0
   13.3187   -9.5874    0.7926 C   0  0  0  0  0  0  0  0  0  0  0  0
   13.2445   -8.2014    0.8739 C   0  0  0  0  0  0  0  0  0  0  0  0
   11.6991   -5.5133    1.2256 N   0  0  0  0  0  0  0  0  0  0  0  0
   11.7858   -4.1845    0.7833 C   0  0  0  0  0  0  0  0  0  0  0  0
   10.7712   -3.7187   -0.0475 C   0  0  0  0  0  0  0  0  0  0  0  0
   10.8197   -2.4274   -0.5442 C   0  0  0  0  0  0  0  0  0  0  0  0
   11.8648   -1.5641   -0.1926 C   0  0  0  0  0  0  0  0  0  0  0  0
   11.9169   -0.1315   -0.7463 C   0  0  0  0  0  0  0  0  0  0  0  0
   12.7557   -0.1019   -2.0369 C   0  0  0  0  0  0  0  0  0  0  0  0
   12.5803    0.8318    0.2570 C   0  0  0  0  0  0  0  0  0  0  0  0
   10.4805    0.3432   -1.0380 C   0  0  0  0  0  0  0  0  0  0  0  0
   12.8556   -2.0349    0.6769 C   0  0  0  0  0  0  0  0  0  0  0  0
   12.8619   -3.3505    1.1396 C   0  0  0  0  0  0  0  0  0  0  0  0
   14.0087   -3.8650    1.9951 C   0  0  1  0  0  0  0  0  0  0  0  0
   13.7947   -3.4627    3.3473 O   0  0  0  0  0  0  0  0  0  0  0  0
   14.6735   -5.1814    8.2598 H   0  0  0  0  0  0  0  0  0  0  0  0
   15.8828   -3.8437    7.9841 H   0  0  0  0  0  0  0  0  0  0  0  0
   15.8509   -5.3019    6.8818 H   0  0  0  0  0  0  0  0  0  0  0  0
   13.6389   -4.6718    6.2894 H   0  0  0  0  0  0  0  0  0  0  0  0
   13.9254   -2.3118    5.5211 H   0  0  0  0  0  0  0  0  0  0  0  0
   15.6389   -2.6096    5.9280 H   0  0  0  0  0  0  0  0  0  0  0  0
   15.7954   -3.3483    3.7468 H   0  0  0  0  0  0  0  0  0  0  0  0
   15.9375   -5.6020    4.8343 H   0  0  0  0  0  0  0  0  0  0  0  0
   14.2035   -5.7885    4.7085 H   0  0  0  0  0  0  0  0  0  0  0  0
   16.1861   -5.6234    2.4153 H   0  0  0  0  0  0  0  0  0  0  0  0
   15.2297   -6.9971    2.8750 H   0  0  0  0  0  0  0  0  0  0  0  0
   14.4101   -5.6090    0.8598 H   0  0  0  0  0  0  0  0  0  0  0  0
   12.3692   -5.8348    3.1428 H   0  0  0  0  0  0  0  0  0  0  0  0
   11.9399   -7.9122    4.0011 H   0  0  0  0  0  0  0  0  0  0  0  0
   12.0683  -10.3730    3.8497 H   0  0  0  0  0  0  0  0  0  0  0  0
   12.9497  -11.4400    1.8049 H   0  0  0  0  0  0  0  0  0  0  0  0
   13.6958  -10.0580   -0.1024 H   0  0  0  0  0  0  0  0  0  0  0  0
   13.5651   -7.6033    0.0339 H   0  0  0  0  0  0  0  0  0  0  0  0
   10.7785   -5.9107    1.3696 H   0  0  0  0  0  0  0  0  0  0  0  0
    9.9359   -4.3468   -0.3168 H   0  0  0  0  0  0  0  0  0  0  0  0
   10.0178   -2.1019   -1.1900 H   0  0  0  0  0  0  0  0  0  0  0  0
   12.9019    0.9045   -2.4236 H   0  0  0  0  0  0  0  0  0  0  0  0
   12.2955   -0.6969   -2.8131 H   0  0  0  0  0  0  0  0  0  0  0  0
   13.7493   -0.5034   -1.8678 H   0  0  0  0  0  0  0  0  0  0  0  0
   13.6597    0.7317    0.2362 H   0  0  0  0  0  0  0  0  0  0  0  0
   12.3141    0.5827    1.2765 H   0  0  0  0  0  0  0  0  0  0  0  0
   12.3525    1.8791    0.0573 H   0  0  0  0  0  0  0  0  0  0  0  0
   10.3454    1.4034   -1.0795 H   0  0  0  0  0  0  0  0  0  0  0  0
    9.7702    0.0204   -0.3014 H   0  0  0  0  0  0  0  0  0  0  0  0
   10.1013   -0.0683   -1.9475 H   0  0  0  0  0  0  0  0  0  0  0  0
   13.6541   -1.3803    0.9921 H   0  0  0  0  0  0  0  0  0  0  0  0
   14.9440   -3.4101    1.6563 H   0  0  0  0  0  0  0  0  0  0  0  0
   13.7216   -3.3684    7.3194 H   0  0  0  0  0  0  0  0  0  0  0  0
  1  2  1  0
  1 28  1  0
  1 29  1  0
  1 30  1  0
  2  3  1  0
  2 31  1  0
  2 60  1  0
  3  4  1  0
  3 32  1  0
  3 33  1  0
  4  5  1  0
  4 27  1  0
  4 34  1  6
  5  6  1  0
  5 35  1  0
  5 36  1  0
  6  7  1  0
  6 37  1  0
  6 38  1  0
  7  8  1  0
  7 26  1  0
  7 39  1  6
  8  9  1  0
  8 15  1  0
  8 40  1  1
  9 10  2  0
  9 14  1  0
 10 11  1  0
 10 41  1  0
 11 12  2  0
 11 42  1  0
 12 13  1  0
 12 43  1  0
 13 14  2  0
 13 44  1  0
 14 45  1  0
 15 16  1  0
 15 46  1  0
 16 17  2  0
 16 25  1  0
 17 18  1  0
 17 47  1  0
 18 19  2  0
 18 48  1  0
 19 20  1  0
 19 24  1  0
 20 21  1  0
 20 22  1  0
 20 23  1  0
 21 49  1  0
 21 50  1  0
 21 51  1  0
 22 52  1  0
 22 53  1  0
 22 54  1  0
 23 55  1  0
 23 56  1  0
 23 57  1  0
 24 25  2  0
 24 58  1  0
 25 26  1  0
 26 27  1  0
 26 59  1  6
M  CHG  1   2   1
M  END
>  <ID>  (14) 
CHEMBL1086410

>  <IC50[nM]>  (14) 
4

>  <kcal/mol experimental dG>  (14) 
-11.52802099480568

>  <kJ/mol experimental dG>  (14) 
-48.23323984226696

>  <experimental dG reference field>  (14) 
IC50[nM]

>  <experimental dG reference units>  (14) 
nM

>  <atom.dprop.PartialCharge>  (14) 
0.07887685 -0.75921595 0.0902074 0.12232098 -0.11144261 -0.08309282 -0.09640852 0.2832918 -0.09216486 -0.1104335 -0.12989566 -0.11655218 -0.12989566 -0.1104335 -0.73177534 0.17408638 -0.18466717 -0.08047097 -0.095046565 -0.0044443943 -0.08026819 -0.08026819 -0.08026819 -0.07516807 -0.15849304 0.20506397 -0.43276417 0.10723221 0.10723221 0.10723221 0.4504941 0.11342259 0.11342259 0.055779543 0.053866524 0.053866524 0.06277558 0.06277558 0.079843104 0.05123436 0.13785957 0.13909876 0.13833113 0.13909876 0.13785957 0.416519 0.1340693 0.13558057 0.0400678 0.0400678 0.0400678 0.0400678 0.0400678 0.0400678 0.0400678 0.0400678 0.0400678 0.13480045 0.0458233 0.4504941

$$$$
CHEMBL1083517
     RDKit          3D

 52 55  0  0  0  0  0  0  0  0999 V2000
   15.2945   -4.6456    7.5469 C   0  0  0  0  0  0  0  0  0  0  0  0
   14.2188   -3.9772    6.6830 N   0  0  0  0  0  0  0  0  0  0  0  0
   14.7170   -3.0548    5.5563 C   0  0  0  0  0  0  0  0  0  0  0  0
   14.9062   -3.7815    4.1963 C   0  0  1  0  0  0  0  0  0  0  0  0
   15.0762   -5.3257    4.2405 C   0  0  0  0  0  0  0  0  0  0  0  0
   15.2119   -5.9103    2.8279 C   0  0  0  0  0  0  0  0  0  0  0  0
   14.0958   -5.4085    1.8831 C   0  0  1  0  0  0  0  0  0  0  0  0
   12.7022   -6.0556    2.1309 C   0  0  2  0  0  0  0  0  0  0  0  0
   12.7494   -7.5720    2.0320 C   0  0  0  0  0  0  0  0  0  0  0  0
   12.3122   -8.3407    3.1105 C   0  0  0  0  0  0  0  0  0  0  0  0
   12.3858   -9.7169    3.0355 C   0  0  0  0  0  0  0  0  0  0  0  0
   12.8953  -10.3167    1.9053 C   0  0  0  0  0  0  0  0  0  0  0  0
   12.9346  -11.6580    1.9834 O   0  0  0  0  0  0  0  0  0  0  0  0
   13.3254   -9.5761    0.8020 C   0  0  0  0  0  0  0  0  0  0  0  0
   13.2462   -8.1884    0.8749 C   0  0  0  0  0  0  0  0  0  0  0  0
   11.6994   -5.5075    1.2212 N   0  0  0  0  0  0  0  0  0  0  0  0
   11.7844   -4.1764    0.7815 C   0  0  0  0  0  0  0  0  0  0  0  0
   10.7699   -3.7067   -0.0503 C   0  0  0  0  0  0  0  0  0  0  0  0
   10.8150   -2.4088   -0.5447 C   0  0  0  0  0  0  0  0  0  0  0  0
   11.8616   -1.5558   -0.1890 C   0  0  0  0  0  0  0  0  0  0  0  0
   11.9106   -0.1398   -0.7467 C   0  0  0  0  0  0  0  0  0  0  0  0
   10.6754    0.3322   -0.9250 F   0  0  0  0  0  0  0  0  0  0  0  0
   12.5663    0.6893    0.0656 F   0  0  0  0  0  0  0  0  0  0  0  0
   12.5325   -0.1603   -1.9255 F   0  0  0  0  0  0  0  0  0  0  0  0
   12.8587   -2.0233    0.6738 C   0  0  0  0  0  0  0  0  0  0  0  0
   12.8627   -3.3435    1.1365 C   0  0  0  0  0  0  0  0  0  0  0  0
   14.0125   -3.8687    1.9839 C   0  0  1  0  0  0  0  0  0  0  0  0
   13.8063   -3.4625    3.3381 O   0  0  0  0  0  0  0  0  0  0  0  0
   14.7131   -5.3408    8.1571 H   0  0  0  0  0  0  0  0  0  0  0  0
   15.7717   -3.8634    8.1459 H   0  0  0  0  0  0  0  0  0  0  0  0
   15.9993   -5.1648    6.8954 H   0  0  0  0  0  0  0  0  0  0  0  0
   13.6481   -4.6984    6.2609 H   0  0  0  0  0  0  0  0  0  0  0  0
   13.9150   -2.3146    5.4984 H   0  0  0  0  0  0  0  0  0  0  0  0
   15.6272   -2.5637    5.9148 H   0  0  0  0  0  0  0  0  0  0  0  0
   15.8145   -3.3482    3.7701 H   0  0  0  0  0  0  0  0  0  0  0  0
   15.9685   -5.5977    4.8005 H   0  0  0  0  0  0  0  0  0  0  0  0
   14.2301   -5.7976    4.7439 H   0  0  0  0  0  0  0  0  0  0  0  0
   16.1813   -5.6195    2.4167 H   0  0  0  0  0  0  0  0  0  0  0  0
   15.2366   -6.9982    2.8824 H   0  0  0  0  0  0  0  0  0  0  0  0
   14.4092   -5.6329    0.8632 H   0  0  0  0  0  0  0  0  0  0  0  0
   12.3643   -5.8188    3.1418 H   0  0  0  0  0  0  0  0  0  0  0  0
   11.9255   -7.8983    4.0140 H   0  0  0  0  0  0  0  0  0  0  0  0
   12.0629  -10.3482    3.8517 H   0  0  0  0  0  0  0  0  0  0  0  0
   13.1991  -12.1433    1.1685 H   0  0  0  0  0  0  0  0  0  0  0  0
   13.7047  -10.0489   -0.0940 H   0  0  0  0  0  0  0  0  0  0  0  0
   13.5679   -7.5941    0.0318 H   0  0  0  0  0  0  0  0  0  0  0  0
   10.7811   -5.9070    1.3745 H   0  0  0  0  0  0  0  0  0  0  0  0
    9.9416   -4.3450   -0.3209 H   0  0  0  0  0  0  0  0  0  0  0  0
   10.0299   -2.0650   -1.2027 H   0  0  0  0  0  0  0  0  0  0  0  0
   13.6742   -1.3708    0.9526 H   0  0  0  0  0  0  0  0  0  0  0  0
   14.9439   -3.4301    1.6181 H   0  0  0  0  0  0  0  0  0  0  0  0
   13.6443   -3.4278    7.3100 H   0  0  0  0  0  0  0  0  0  0  0  0
  1  2  1  0
  1 29  1  0
  1 30  1  0
  1 31  1  0
  2  3  1  0
  2 32  1  0
  2 52  1  0
  3  4  1  0
  3 33  1  0
  3 34  1  0
  4  5  1  0
  4 28  1  0
  4 35  1  6
  5  6  1  0
  5 36  1  0
  5 37  1  0
  6  7  1  0
  6 38  1  0
  6 39  1  0
  7  8  1  0
  7 27  1  0
  7 40  1  6
  8  9  1  0
  8 16  1  0
  8 41  1  1
  9 10  2  0
  9 15  1  0
 10 11  1  0
 10 42  1  0
 11 12  2  0
 11 43  1  0
 12 13  1  0
 12 14  1  0
 13 44  1  0
 14 15  2  0
 14 45  1  0
 15 46  1  0
 16 17  1  0
 16 47  1  0
 17 18  2  0
 17 26  1  0
 18 19  1  0
 18 48  1  0
 19 20  2  0
 19 49  1  0
 20 21  1  0
 20 25  1  0
 21 22  1  0
 21 23  1  0
 21 24  1  0
 25 26  2  0
 25 50  1  0
 26 27  1  0
 27 28  1  0
 27 51  1  6
M  CHG  1   2   1
M  END
>  <ID>  (15) 
CHEMBL1083517

>  <IC50[nM]>  (15) 
4

>  <kcal/mol experimental dG>  (15) 
-11.52802099480568

>  <kJ/mol experimental dG>  (15) 
-48.23323984226696

>  <experimental dG reference field>  (15) 
IC50[nM]

>  <experimental dG reference units>  (15) 
nM

>  <atom.dprop.PartialCharge>  (15) 
0.08039837 -0.7576938 0.0917289 0.12384248 -0.1099211 -0.08157131 -0.095961444 0.28750116 -0.123046145 -0.06710383 -0.18320729 0.14005871 -0.4875574 -0.18320729 -0.06710383 -0.7291501 0.22809497 -0.19617158 -0.033887308 -0.21831158 0.69109166 -0.23301454 -0.23301454 -0.23301454 -0.017710015 -0.18034768 0.21263787 -0.42921335 0.108753726 0.108753726 0.108753726 0.45201576 0.11494411 0.11494411 0.057301134 0.055388086 0.055388086 0.06429715 0.06429715 0.08136473 0.051678844 0.14029855 0.15037884 0.4253875 0.15037884 0.14029855 0.41804054 0.14415483 0.15067545 0.14650023 0.04884565 0.45201576

$$$$
CHEMBL1096003
     RDKit          3D

 62 65  0  0  0  0  0  0  0  0999 V2000
   16.1912   -7.7412   11.8466 C   0  0  0  0  0  0  0  0  0  0  0  0
   15.1910   -6.9123   11.0170 N   0  0  0  0  0  0  0  0  0  0  0  0
   14.3191   -7.8539   10.3207 C   0  0  0  0  0  0  0  0  0  0  0  0
   15.9171   -5.9921   10.0050 C   0  0  0  0  0  0  0  0  0  0  0  0
   14.8572   -5.3740    9.0989 C   0  0  0  0  0  0  0  0  0  0  0  0
   15.6866   -4.1881    7.8512 S   0  0  0  0  0  6  0  0  0  0  0  0
   15.9605   -2.8994    8.4965 O   0  0  0  0  0  0  0  0  0  0  0  0
   16.7692   -4.9053    7.1723 O   0  0  0  0  0  0  0  0  0  0  0  0
   14.3931   -3.9357    6.7113 N   0  0  0  0  0  0  0  0  0  0  0  0
   14.7292   -3.0772    5.5493 C   0  0  0  0  0  0  0  0  0  0  0  0
   14.9090   -3.7899    4.1939 C   0  0  1  0  0  0  0  0  0  0  0  0
   15.0802   -5.3264    4.2516 C   0  0  0  0  0  0  0  0  0  0  0  0
   15.2184   -5.9103    2.8356 C   0  0  0  0  0  0  0  0  0  0  0  0
   14.1038   -5.4145    1.8827 C   0  0  1  0  0  0  0  0  0  0  0  0
   12.7108   -6.0690    2.1214 C   0  0  2  0  0  0  0  0  0  0  0  0
   12.7593   -7.5926    2.0373 C   0  0  0  0  0  0  0  0  0  0  0  0
   12.3256   -8.3763    3.1078 C   0  0  0  0  0  0  0  0  0  0  0  0
   12.4034   -9.7655    3.0228 C   0  0  0  0  0  0  0  0  0  0  0  0
   12.9076  -10.3673    1.8725 C   0  0  0  0  0  0  0  0  0  0  0  0
   13.3297   -9.5928    0.7978 C   0  0  0  0  0  0  0  0  0  0  0  0
   13.2528   -8.2067    0.8813 C   0  0  0  0  0  0  0  0  0  0  0  0
   11.7374   -5.5233    1.1763 N   0  0  0  0  0  0  0  0  0  0  0  0
   11.7936   -4.1831    0.7614 C   0  0  0  0  0  0  0  0  0  0  0  0
   10.7743   -3.7096   -0.0570 C   0  0  0  0  0  0  0  0  0  0  0  0
    9.7529   -4.5301   -0.4068 F   0  0  0  0  0  0  0  0  0  0  0  0
   10.8089   -2.4050   -0.5396 C   0  0  0  0  0  0  0  0  0  0  0  0
   11.8578   -1.5536   -0.1865 C   0  0  0  0  0  0  0  0  0  0  0  0
   11.9057    0.0650   -0.7794 Cl  0  0  0  0  0  0  0  0  0  0  0  0
   12.8594   -2.0221    0.6688 C   0  0  0  0  0  0  0  0  0  0  0  0
   12.8662   -3.3440    1.1312 C   0  0  0  0  0  0  0  0  0  0  0  0
   14.0156   -3.8719    1.9779 C   0  0  1  0  0  0  0  0  0  0  0  0
   13.8095   -3.4697    3.3345 O   0  0  0  0  0  0  0  0  0  0  0  0
   15.6635   -8.3780   12.5584 H   0  0  0  0  0  0  0  0  0  0  0  0
   16.8639   -7.0917   12.4097 H   0  0  0  0  0  0  0  0  0  0  0  0
   16.7956   -8.3831   11.2033 H   0  0  0  0  0  0  0  0  0  0  0  0
   14.9112   -8.4558    9.6313 H   0  0  0  0  0  0  0  0  0  0  0  0
   13.5612   -7.3034    9.7634 H   0  0  0  0  0  0  0  0  0  0  0  0
   13.8340   -8.5055   11.0474 H   0  0  0  0  0  0  0  0  0  0  0  0
   16.4788   -5.2144   10.5267 H   0  0  0  0  0  0  0  0  0  0  0  0
   16.6310   -6.5641    9.4086 H   0  0  0  0  0  0  0  0  0  0  0  0
   14.3317   -6.1203    8.5046 H   0  0  0  0  0  0  0  0  0  0  0  0
   14.1257   -4.7632    9.6310 H   0  0  0  0  0  0  0  0  0  0  0  0
   14.0692   -4.8219    6.3319 H   0  0  0  0  0  0  0  0  0  0  0  0
   13.9634   -2.3059    5.4562 H   0  0  0  0  0  0  0  0  0  0  0  0
   15.6452   -2.5288    5.7797 H   0  0  0  0  0  0  0  0  0  0  0  0
   15.8059   -3.3643    3.7387 H   0  0  0  0  0  0  0  0  0  0  0  0
   15.9589   -5.5929    4.8383 H   0  0  0  0  0  0  0  0  0  0  0  0
   14.2174   -5.7845    4.7339 H   0  0  0  0  0  0  0  0  0  0  0  0
   16.1814   -5.6012    2.4271 H   0  0  0  0  0  0  0  0  0  0  0  0
   15.2511   -6.9994    2.8712 H   0  0  0  0  0  0  0  0  0  0  0  0
   14.4140   -5.6583    0.8657 H   0  0  0  0  0  0  0  0  0  0  0  0
   12.3674   -5.7942    3.1196 H   0  0  0  0  0  0  0  0  0  0  0  0
   11.9279   -7.9120    3.9977 H   0  0  0  0  0  0  0  0  0  0  0  0
   12.0653  -10.3792    3.8449 H   0  0  0  0  0  0  0  0  0  0  0  0
   12.9611  -11.4448    1.8082 H   0  0  0  0  0  0  0  0  0  0  0  0
   13.7098  -10.0636   -0.0974 H   0  0  0  0  0  0  0  0  0  0  0  0
   13.5699   -7.6070    0.0406 H   0  0  0  0  0  0  0  0  0  0  0  0
   10.9548   -6.0948    0.8815 H   0  0  0  0  0  0  0  0  0  0  0  0
   10.0204   -2.0535   -1.1875 H   0  0  0  0  0  0  0  0  0  0  0  0
   13.6663   -1.3598    0.9462 H   0  0  0  0  0  0  0  0  0  0  0  0
   14.9393   -3.4276    1.6025 H   0  0  0  0  0  0  0  0  0  0  0  0
   14.6358   -6.3567   11.6552 H   0  0  0  0  0  0  0  0  0  0  0  0
  1  2  1  0
  1 33  1  0
  1 34  1  0
  1 35  1  0
  2  3  1  0
  2  4  1  0
  2 62  1  0
  3 36  1  0
  3 37  1  0
  3 38  1  0
  4  5  1  0
  4 39  1  0
  4 40  1  0
  5  6  1  0
  5 41  1  0
  5 42  1  0
  6  7  2  0
  6  8  2  0
  6  9  1  0
  9 10  1  0
  9 43  1  0
 10 11  1  0
 10 44  1  0
 10 45  1  0
 11 12  1  0
 11 32  1  0
 11 46  1  6
 12 13  1  0
 12 47  1  0
 12 48  1  0
 13 14  1  0
 13 49  1  0
 13 50  1  0
 14 15  1  0
 14 31  1  0
 14 51  1  6
 15 16  1  0
 15 22  1  0
 15 52  1  1
 16 17  2  0
 16 21  1  0
 17 18  1  0
 17 53  1  0
 18 19  2  0
 18 54  1  0
 19 20  1  0
 19 55  1  0
 20 21  2  0
 20 56  1  0
 21 57  1  0
 22 23  1  0
 22 58  1  0
 23 24  2  0
 23 30  1  0
 24 25  1  0
 24 26  1  0
 26 27  2  0
 26 59  1  0
 27 28  1  0
 27 29  1  0
 29 30  2  0
 29 60  1  0
 30 31  1  0
 31 32  1  0
 31 61  1  6
M  CHG  1   2   1
M  END
>  <ID>  (16) 
CHEMBL1096003

>  <IC50[nM]>  (16) 
2

>  <kcal/mol experimental dG>  (16) 
-11.941250918631892

>  <kJ/mol experimental dG>  (16) 
-49.96219384355584

>  <experimental dG reference field>  (16) 
IC50[nM]

>  <experimental dG reference units>  (16) 
nM

>  <atom.dprop.PartialCharge>  (16) 
0.07482922 -0.69626176 0.07482922 0.1501739 -0.34562296 1.4793602 -0.6242081 -0.6242081 -0.9275206 0.21408814 0.1262127 -0.101068184 -0.07403065 -0.09265736 0.28111306 -0.09004605 -0.108793125 -0.12897381 -0.11563035 -0.12897381 -0.108793125 -0.7280557 0.15794098 0.07058226 -0.14390117 -0.12121246 0.00065933913 -0.0825524 -0.08168131 -0.12339854 0.20647272 -0.39242545 0.10532122 0.10532122 0.10532122 0.10532122 0.10532122 0.10532122 0.11099942 0.11099942 0.10442926 0.10442926 0.45020974 0.061836485 0.061836485 0.053269632 0.061059892 0.061059892 0.055648804 0.055648804 0.078969896 0.05362867 0.13878144 0.14002067 0.13925302 0.14002067 0.13878144 0.42312002 0.16642606 0.15239672 0.064106666 0.4448933

$$$$
CHEMBL1077204
     RDKit          3D

 66 69  0  0  0  0  0  0  0  0999 V2000
   17.1208   -7.6407   11.4944 C   0  0  0  0  0  0  0  0  0  0  0  0
   15.6242   -7.2482   11.5606 N   0  0  0  0  0  0  0  0  0  0  0  0
   15.1903   -7.0165   13.0246 C   0  0  0  0  0  0  0  0  0  0  0  0
   15.2858   -6.0369   10.6535 C   0  0  0  0  0  0  0  0  0  0  0  0
   15.3687   -6.4451    9.1688 C   0  0  0  0  0  0  0  0  0  0  0  0
   14.6307   -5.5382    8.2833 N   0  0  0  0  0  0  0  0  0  0  0  0
   15.2046   -4.6148    7.4955 C   0  0  0  0  0  0  0  0  0  0  0  0
   16.4171   -4.3982    7.4780 O   0  0  0  0  0  0  0  0  0  0  0  0
   14.3250   -3.9893    6.6937 N   0  0  0  0  0  0  0  0  0  0  0  0
   14.7079   -3.1014    5.5887 C   0  0  0  0  0  0  0  0  0  0  0  0
   14.9053   -3.7799    4.2057 C   0  0  1  0  0  0  0  0  0  0  0  0
   15.0866   -5.3225    4.2389 C   0  0  0  0  0  0  0  0  0  0  0  0
   15.2182   -5.9111    2.8299 C   0  0  0  0  0  0  0  0  0  0  0  0
   14.1067   -5.4122    1.8780 C   0  0  1  0  0  0  0  0  0  0  0  0
   12.7152   -6.0685    2.1272 C   0  0  2  0  0  0  0  0  0  0  0  0
   12.7619   -7.5943    2.0392 C   0  0  0  0  0  0  0  0  0  0  0  0
   13.2585   -8.2080    0.8850 C   0  0  0  0  0  0  0  0  0  0  0  0
   13.3325   -9.5936    0.8010 C   0  0  0  0  0  0  0  0  0  0  0  0
   12.9111  -10.3707    1.8760 C   0  0  0  0  0  0  0  0  0  0  0  0
   12.4042   -9.7694    3.0248 C   0  0  0  0  0  0  0  0  0  0  0  0
   12.3240   -8.3811    3.1077 C   0  0  0  0  0  0  0  0  0  0  0  0
   11.7146   -5.5161    1.2136 N   0  0  0  0  0  0  0  0  0  0  0  0
   11.7897   -4.1790    0.7828 C   0  0  0  0  0  0  0  0  0  0  0  0
   10.7767   -3.7118   -0.0511 C   0  0  0  0  0  0  0  0  0  0  0  0
   10.8134   -2.4087   -0.5370 C   0  0  0  0  0  0  0  0  0  0  0  0
   11.8546   -1.5518   -0.1784 C   0  0  0  0  0  0  0  0  0  0  0  0
   11.8961   -0.1327   -0.7370 C   0  0  0  0  0  0  0  0  0  0  0  0
   12.5327   -0.1525   -1.9080 F   0  0  0  0  0  0  0  0  0  0  0  0
   10.6622    0.3290   -0.9348 F   0  0  0  0  0  0  0  0  0  0  0  0
   12.5354    0.7038    0.0806 F   0  0  0  0  0  0  0  0  0  0  0  0
   12.8578   -2.0201    0.6775 C   0  0  0  0  0  0  0  0  0  0  0  0
   12.8617   -3.3430    1.1425 C   0  0  0  0  0  0  0  0  0  0  0  0
   14.0142   -3.8707    1.9829 C   0  0  1  0  0  0  0  0  0  0  0  0
   13.8081   -3.4639    3.3402 O   0  0  0  0  0  0  0  0  0  0  0  0
   17.7113   -6.7969   11.8567 H   0  0  0  0  0  0  0  0  0  0  0  0
   17.3740   -7.8767   10.4603 H   0  0  0  0  0  0  0  0  0  0  0  0
   17.2673   -8.5191   12.1246 H   0  0  0  0  0  0  0  0  0  0  0  0
   15.8080   -6.2212   13.4462 H   0  0  0  0  0  0  0  0  0  0  0  0
   15.3361   -7.9568   13.5567 H   0  0  0  0  0  0  0  0  0  0  0  0
   14.1337   -6.7438   13.0292 H   0  0  0  0  0  0  0  0  0  0  0  0
   14.2726   -5.7239   10.9114 H   0  0  0  0  0  0  0  0  0  0  0  0
   15.9845   -5.2443   10.9348 H   0  0  0  0  0  0  0  0  0  0  0  0
   16.4162   -6.5231    8.8640 H   0  0  0  0  0  0  0  0  0  0  0  0
   14.9420   -7.4387    9.0363 H   0  0  0  0  0  0  0  0  0  0  0  0
   13.6294   -5.6568    8.2395 H   0  0  0  0  0  0  0  0  0  0  0  0
   13.3355   -4.1464    6.8108 H   0  0  0  0  0  0  0  0  0  0  0  0
   13.9461   -2.3268    5.5168 H   0  0  0  0  0  0  0  0  0  0  0  0
   15.6254   -2.5650    5.8439 H   0  0  0  0  0  0  0  0  0  0  0  0
   15.8025   -3.3200    3.7819 H   0  0  0  0  0  0  0  0  0  0  0  0
   15.9692   -5.5863    4.8210 H   0  0  0  0  0  0  0  0  0  0  0  0
   14.2376   -5.7853    4.7452 H   0  0  0  0  0  0  0  0  0  0  0  0
   16.1874   -5.6240    2.4207 H   0  0  0  0  0  0  0  0  0  0  0  0
   15.2392   -6.9986    2.8928 H   0  0  0  0  0  0  0  0  0  0  0  0
   14.4252   -5.6330    0.8574 H   0  0  0  0  0  0  0  0  0  0  0  0
   12.3880   -5.8136    3.1374 H   0  0  0  0  0  0  0  0  0  0  0  0
   13.5758   -7.6098    0.0450 H   0  0  0  0  0  0  0  0  0  0  0  0
   13.7099  -10.0616   -0.0950 H   0  0  0  0  0  0  0  0  0  0  0  0
   12.9588  -11.4481    1.8080 H   0  0  0  0  0  0  0  0  0  0  0  0
   12.0706  -10.3802    3.8519 H   0  0  0  0  0  0  0  0  0  0  0  0
   11.9249   -7.9218    4.0012 H   0  0  0  0  0  0  0  0  0  0  0  0
   10.8052   -5.9499    1.3121 H   0  0  0  0  0  0  0  0  0  0  0  0
    9.9603   -4.3577   -0.3382 H   0  0  0  0  0  0  0  0  0  0  0  0
   10.0317   -2.0700   -1.2005 H   0  0  0  0  0  0  0  0  0  0  0  0
   13.6772   -1.3689    0.9476 H   0  0  0  0  0  0  0  0  0  0  0  0
   14.9369   -3.4306    1.5995 H   0  0  0  0  0  0  0  0  0  0  0  0
   15.0791   -8.0358   11.2257 H   0  0  0  0  0  0  0  0  0  0  0  0
  1  2  1  0
  1 35  1  0
  1 36  1  0
  1 37  1  0
  2  3  1  0
  2  4  1  0
  2 66  1  0
  3 38  1  0
  3 39  1  0
  3 40  1  0
  4  5  1  0
  4 41  1  0
  4 42  1  0
  5  6  1  0
  5 43  1  0
  5 44  1  0
  6  7  1  0
  6 45  1  0
  7  8  2  0
  7  9  1  0
  9 10  1  0
  9 46  1  0
 10 11  1  0
 10 47  1  0
 10 48  1  0
 11 12  1  0
 11 34  1  0
 11 49  1  6
 12 13  1  0
 12 50  1  0
 12 51  1  0
 13 14  1  0
 13 52  1  0
 13 53  1  0
 14 15  1  0
 14 33  1  0
 14 54  1  6
 15 16  1  0
 15 22  1  0
 15 55  1  1
 16 17  2  0
 16 21  1  0
 17 18  1  0
 17 56  1  0
 18 19  2  0
 18 57  1  0
 19 20  1  0
 19 58  1  0
 20 21  2  0
 20 59  1  0
 21 60  1  0
 22 23  1  0
 22 61  1  0
 23 24  2  0
 23 32  1  0
 24 25  1  0
 24 62  1  0
 25 26  2  0
 25 63  1  0
 26 27  1  0
 26 31  1  0
 27 28  1  0
 27 29  1  0
 27 30  1  0
 31 32  2  0
 31 64  1  0
 32 33  1  0
 33 34  1  0
 33 65  1  6
M  CHG  1   2   1
M  END
>  <ID>  (17) 
CHEMBL1077204

>  <IC50[nM]>  (17) 
8

>  <kcal/mol experimental dG>  (17) 
-11.11479107097947

>  <kJ/mol experimental dG>  (17) 
-46.504285840978106

>  <experimental dG reference field>  (17) 
IC50[nM]

>  <experimental dG reference units>  (17) 
nM

>  <atom.dprop.PartialCharge>  (17) 
0.07838906 -0.68300784 0.07838906 0.07499093 0.10149593 -0.58497274 0.7654663 -0.6197035 -0.5687324 0.096475326 0.12265783 -0.104408935 -0.074882716 -0.094530985 0.27934277 -0.0922548 -0.11052344 -0.12998562 -0.11664213 -0.12998562 -0.11052344 -0.72994816 0.21417618 -0.19778319 -0.035498742 -0.21992317 0.68948 -0.23462644 -0.23462644 -0.23462644 -0.02984203 -0.16942632 0.20665364 -0.39705783 0.104613736 0.104613736 0.104613736 0.104613736 0.104613736 0.104613736 0.10502881 0.10502881 0.06791487 0.06791487 0.3129633 0.3037631 0.07259659 0.07259659 0.04956696 0.058512487 0.058512487 0.054678917 0.054678917 0.077561736 0.051144414 0.13776961 0.1390088 0.13824117 0.1390088 0.13776961 0.41642904 0.14254321 0.14906386 0.14488865 0.06351779 0.44760925

$$$$
CHEMBL1083836
     RDKit          3D

 55 59  0  0  0  0  0  0  0  0999 V2000
   15.2821   -4.6350    7.5364 C   0  0  0  0  0  0  0  0  0  0  0  0
   14.1932   -3.9714    6.6802 N   0  0  0  0  0  0  0  0  0  0  0  0
   14.7173   -3.0545    5.5540 C   0  0  0  0  0  0  0  0  0  0  0  0
   14.9175   -3.7786    4.1872 C   0  0  1  0  0  0  0  0  0  0  0  0
   15.0874   -5.3228    4.2360 C   0  0  0  0  0  0  0  0  0  0  0  0
   15.2206   -5.9197    2.8310 C   0  0  0  0  0  0  0  0  0  0  0  0
   14.1088   -5.4312    1.8792 C   0  0  1  0  0  0  0  0  0  0  0  0
   12.7176   -6.0847    2.1226 C   0  0  2  0  0  0  0  0  0  0  0  0
   12.7637   -7.6040    2.0348 C   0  0  0  0  0  0  0  0  0  0  0  0
   13.2571   -8.2154    0.8775 C   0  0  0  0  0  0  0  0  0  0  0  0
   13.3310   -9.5999    0.7947 C   0  0  0  0  0  0  0  0  0  0  0  0
   12.9090  -10.3740    1.8712 C   0  0  0  0  0  0  0  0  0  0  0  0
   12.4010   -9.7717    3.0201 C   0  0  0  0  0  0  0  0  0  0  0  0
   12.3216   -8.3846    3.1028 C   0  0  0  0  0  0  0  0  0  0  0  0
   11.7445   -5.5529    1.1675 N   0  0  0  0  0  0  0  0  0  0  0  0
   11.7783   -4.2163    0.7637 C   0  0  0  0  0  0  0  0  0  0  0  0
   10.7564   -3.7313   -0.0600 C   0  0  0  0  0  0  0  0  0  0  0  0
   10.7840   -2.4218   -0.5217 C   0  0  0  0  0  0  0  0  0  0  0  0
   11.8218   -1.5818   -0.1229 C   0  0  0  0  0  0  0  0  0  0  0  0
   11.8894   -0.1791   -0.6884 C   0  0  0  0  0  0  0  0  0  0  0  0
   12.9842    0.7528   -0.3261 C   0  0  0  0  0  0  0  0  0  0  0  0
   12.9393    0.1563   -1.7215 C   0  0  0  0  0  0  0  0  0  0  0  0
   12.8260   -2.0751    0.7222 C   0  0  0  0  0  0  0  0  0  0  0  0
   12.8412   -3.3893    1.1509 C   0  0  0  0  0  0  0  0  0  0  0  0
   14.0126   -3.8975    1.9757 C   0  0  1  0  0  0  0  0  0  0  0  0
   13.8215   -3.4695    3.3243 O   0  0  0  0  0  0  0  0  0  0  0  0
   14.7432   -5.2224    8.2879 H   0  0  0  0  0  0  0  0  0  0  0  0
   15.8954   -3.8612    8.0164 H   0  0  0  0  0  0  0  0  0  0  0  0
   15.9091   -5.2980    6.9311 H   0  0  0  0  0  0  0  0  0  0  0  0
   13.6118   -3.4115    7.2986 H   0  0  0  0  0  0  0  0  0  0  0  0
   15.6259   -2.5534    5.9128 H   0  0  0  0  0  0  0  0  0  0  0  0
   13.9360   -2.2914    5.4675 H   0  0  0  0  0  0  0  0  0  0  0  0
   15.8232   -3.3411    3.7607 H   0  0  0  0  0  0  0  0  0  0  0  0
   14.2483   -5.7949    4.7546 H   0  0  0  0  0  0  0  0  0  0  0  0
   15.9900   -5.5952    4.7784 H   0  0  0  0  0  0  0  0  0  0  0  0
   16.1879   -5.6256    2.4157 H   0  0  0  0  0  0  0  0  0  0  0  0
   15.2426   -7.0073    2.8962 H   0  0  0  0  0  0  0  0  0  0  0  0
   14.4245   -5.6435    0.8559 H   0  0  0  0  0  0  0  0  0  0  0  0
   12.3752   -5.8170    3.1268 H   0  0  0  0  0  0  0  0  0  0  0  0
   13.5704   -7.6127    0.0382 H   0  0  0  0  0  0  0  0  0  0  0  0
   13.6962  -10.0654   -0.1078 H   0  0  0  0  0  0  0  0  0  0  0  0
   12.9524  -11.4515    1.8058 H   0  0  0  0  0  0  0  0  0  0  0  0
   12.0676  -10.3758    3.8514 H   0  0  0  0  0  0  0  0  0  0  0  0
   11.9274   -7.9213    3.9964 H   0  0  0  0  0  0  0  0  0  0  0  0
   11.1139   -6.2188    0.7581 H   0  0  0  0  0  0  0  0  0  0  0  0
    9.9362   -4.3709   -0.3457 H   0  0  0  0  0  0  0  0  0  0  0  0
   10.0223   -2.0493   -1.1963 H   0  0  0  0  0  0  0  0  0  0  0  0
   10.9154    0.2829   -0.8331 H   0  0  0  0  0  0  0  0  0  0  0  0
   12.8587    1.8276   -0.1827 H   0  0  0  0  0  0  0  0  0  0  0  0
   13.7896    0.3985    0.3059 H   0  0  0  0  0  0  0  0  0  0  0  0
   13.6590   -0.6004   -2.0043 H   0  0  0  0  0  0  0  0  0  0  0  0
   12.8015    0.8402   -2.5636 H   0  0  0  0  0  0  0  0  0  0  0  0
   13.6855   -1.4988    1.0279 H   0  0  0  0  0  0  0  0  0  0  0  0
   14.9341   -3.4492    1.5902 H   0  0  0  0  0  0  0  0  0  0  0  0
   13.5724   -4.6652    6.2709 H   0  0  0  0  0  0  0  0  0  0  0  0
  1  2  1  0
  1 27  1  0
  1 28  1  0
  1 29  1  0
  2  3  1  0
  2 30  1  0
  2 55  1  0
  3  4  1  0
  3 31  1  0
  3 32  1  0
  4  5  1  0
  4 26  1  0
  4 33  1  6
  5  6  1  0
  5 34  1  0
  5 35  1  0
  6  7  1  0
  6 36  1  0
  6 37  1  0
  7  8  1  0
  7 25  1  0
  7 38  1  6
  8  9  1  0
  8 15  1  0
  8 39  1  1
  9 10  2  0
  9 14  1  0
 10 11  1  0
 10 40  1  0
 11 12  2  0
 11 41  1  0
 12 13  1  0
 12 42  1  0
 13 14  2  0
 13 43  1  0
 14 44  1  0
 15 16  1  0
 15 45  1  0
 16 17  2  0
 16 24  1  0
 17 18  1  0
 17 46  1  0
 18 19  2  0
 18 47  1  0
 19 20  1  0
 19 23  1  0
 20 21  1  0
 20 22  1  0
 20 48  1  0
 21 22  1  0
 21 49  1  0
 21 50  1  0
 22 51  1  0
 22 52  1  0
 23 24  2  0
 23 53  1  0
 24 25  1  0
 25 26  1  0
 25 54  1  6
M  CHG  1   2   1
M  END
>  <ID>  (18) 
CHEMBL1083836

>  <IC50[nM]>  (18) 
11

>  <kcal/mol experimental dG>  (18) 
-10.924940178206626

>  <kJ/mol experimental dG>  (18) 
-45.70994970561652

>  <experimental dG reference field>  (18) 
IC50[nM]

>  <experimental dG reference units>  (18) 
nM

>  <atom.dprop.PartialCharge>  (18) 
0.07923229 -0.75886035 0.09056283 0.123011276 -0.11108719 -0.08262786 -0.09594412 0.2849275 -0.09180941 -0.11007806 -0.12954022 -0.11619674 -0.12954022 -0.11007806 -0.73189276 0.18872645 -0.18260202 -0.079399616 -0.09298578 -0.0796308 -0.12126997 -0.12126997 -0.064082384 -0.1701052 0.2071631 -0.43219268 0.10758764 0.10758764 0.10758764 0.4508496 0.113778025 0.113778025 0.05613499 0.054221965 0.054221965 0.06313103 0.06313103 0.080203444 0.051589806 0.13821502 0.13945423 0.1386866 0.13945423 0.13821502 0.41790032 0.13665809 0.13455316 0.091010995 0.07731286 0.07731286 0.07731286 0.07731286 0.13308237 0.046436265 0.4508496

$$$$
CHEMBL1085666
     RDKit          3D

 48 51  0  0  0  0  0  0  0  0999 V2000
   14.3165   -4.0041    6.7057 N   0  0  0  0  0  0  0  0  0  0  0  0
   14.6800   -3.0520    5.5568 C   0  0  0  0  0  0  0  0  0  0  0  0
   14.9014   -3.7767    4.2034 C   0  0  1  0  0  0  0  0  0  0  0  0
   15.0794   -5.3204    4.2560 C   0  0  0  0  0  0  0  0  0  0  0  0
   15.2134   -5.9116    2.8388 C   0  0  0  0  0  0  0  0  0  0  0  0
   14.1000   -5.4138    1.8842 C   0  0  1  0  0  0  0  0  0  0  0  0
   12.7075   -6.0661    2.1333 C   0  0  2  0  0  0  0  0  0  0  0  0
   12.7523   -7.5906    2.0360 C   0  0  0  0  0  0  0  0  0  0  0  0
   12.3188   -8.3771    3.1048 C   0  0  0  0  0  0  0  0  0  0  0  0
   12.4038   -9.7653    3.0219 C   0  0  0  0  0  0  0  0  0  0  0  0
   12.9145  -10.3670    1.8742 C   0  0  0  0  0  0  0  0  0  0  0  0
   13.3307   -9.5915    0.7997 C   0  0  0  0  0  0  0  0  0  0  0  0
   13.2510   -8.2048    0.8812 C   0  0  0  0  0  0  0  0  0  0  0  0
   11.7043   -5.5100    1.2252 N   0  0  0  0  0  0  0  0  0  0  0  0
   11.7866   -4.1781    0.7837 C   0  0  0  0  0  0  0  0  0  0  0  0
   10.7799   -3.7112   -0.0569 C   0  0  0  0  0  0  0  0  0  0  0  0
   10.8200   -2.4096   -0.5450 C   0  0  0  0  0  0  0  0  0  0  0  0
   11.8586   -1.5528   -0.1813 C   0  0  0  0  0  0  0  0  0  0  0  0
   11.9069   -0.1362   -0.7423 C   0  0  0  0  0  0  0  0  0  0  0  0
   12.5326   -0.1571   -1.9193 F   0  0  0  0  0  0  0  0  0  0  0  0
   10.6732    0.3298   -0.9284 F   0  0  0  0  0  0  0  0  0  0  0  0
   12.5588    0.6950    0.0707 F   0  0  0  0  0  0  0  0  0  0  0  0
   12.8553   -2.0181    0.6851 C   0  0  0  0  0  0  0  0  0  0  0  0
   12.8601   -3.3413    1.1433 C   0  0  0  0  0  0  0  0  0  0  0  0
   14.0134   -3.8725    1.9818 C   0  0  1  0  0  0  0  0  0  0  0  0
   13.8054   -3.4743    3.3377 O   0  0  0  0  0  0  0  0  0  0  0  0
   14.1083   -3.4755    7.5374 H   0  0  0  0  0  0  0  0  0  0  0  0
   15.0831   -4.6260    6.9124 H   0  0  0  0  0  0  0  0  0  0  0  0
   13.8569   -2.3375    5.5186 H   0  0  0  0  0  0  0  0  0  0  0  0
   15.5810   -2.5393    5.9003 H   0  0  0  0  0  0  0  0  0  0  0  0
   15.8116   -3.3319    3.7907 H   0  0  0  0  0  0  0  0  0  0  0  0
   15.9615   -5.5868    4.8374 H   0  0  0  0  0  0  0  0  0  0  0  0
   14.2305   -5.7943    4.7513 H   0  0  0  0  0  0  0  0  0  0  0  0
   16.1803   -5.6225    2.4218 H   0  0  0  0  0  0  0  0  0  0  0  0
   15.2376   -7.0003    2.8944 H   0  0  0  0  0  0  0  0  0  0  0  0
   14.4183   -5.6311    0.8642 H   0  0  0  0  0  0  0  0  0  0  0  0
   12.3776   -5.8170    3.1448 H   0  0  0  0  0  0  0  0  0  0  0  0
   11.9279   -7.9184    4.0017 H   0  0  0  0  0  0  0  0  0  0  0  0
   12.0698  -10.3730    3.8508 H   0  0  0  0  0  0  0  0  0  0  0  0
   12.9571  -11.4450    1.8081 H   0  0  0  0  0  0  0  0  0  0  0  0
   13.7008  -10.0609   -0.1014 H   0  0  0  0  0  0  0  0  0  0  0  0
   13.5635   -7.6082    0.0379 H   0  0  0  0  0  0  0  0  0  0  0  0
   10.7857   -5.9114    1.3751 H   0  0  0  0  0  0  0  0  0  0  0  0
    9.9547   -4.3494   -0.3318 H   0  0  0  0  0  0  0  0  0  0  0  0
   10.0333   -2.0723   -1.2046 H   0  0  0  0  0  0  0  0  0  0  0  0
   13.6741   -1.3662    0.9573 H   0  0  0  0  0  0  0  0  0  0  0  0
   14.9381   -3.4355    1.5965 H   0  0  0  0  0  0  0  0  0  0  0  0
   13.5054   -4.5515    6.4618 H   0  0  0  0  0  0  0  0  0  0  0  0
  1  2  1  0
  1 27  1  0
  1 28  1  0
  1 48  1  0
  2  3  1  0
  2 29  1  0
  2 30  1  0
  3  4  1  0
  3 26  1  0
  3 31  1  6
  4  5  1  0
  4 32  1  0
  4 33  1  0
  5  6  1  0
  5 34  1  0
  5 35  1  0
  6  7  1  0
  6 25  1  0
  6 36  1  6
  7  8  1  0
  7 14  1  0
  7 37  1  1
  8  9  2  0
  8 13  1  0
  9 10  1  0
  9 38  1  0
 10 11  2  0
 10 39  1  0
 11 12  1  0
 11 40  1  0
 12 13  2  0
 12 41  1  0
 13 42  1  0
 14 15  1  0
 14 43  1  0
 15 16  2  0
 15 24  1  0
 16 17  1  0
 16 44  1  0
 17 18  2  0
 17 45  1  0
 18 19  1  0
 18 23  1  0
 19 20  1  0
 19 21  1  0
 19 22  1  0
 23 24  2  0
 23 46  1  0
 24 25  1  0
 25 26  1  0
 25 47  1  6
M  CHG  1   1   1
M  END
>  <ID>  (19) 
CHEMBL1085666

>  <IC50[nM]>  (19) 
20

>  <kcal/mol experimental dG>  (19) 
-10.568530825025436

>  <kJ/mol experimental dG>  (19) 
-44.21873297190643

>  <experimental dG reference field>  (19) 
IC50[nM]

>  <experimental dG reference units>  (19) 
nM

>  <atom.dprop.PartialCharge>  (19) 
-0.8390291 0.089759655 0.12140986 -0.11638896 -0.076820716 -0.093418695 0.28503612 -0.0904203 -0.108689025 -0.12815112 -0.114807665 -0.12815112 -0.108689025 -0.72811294 0.22831789 -0.1959486 -0.033664368 -0.21808863 0.69131464 -0.23279154 -0.23279154 -0.23279154 -0.017487068 -0.17968419 0.2189961 -0.43422684 0.4600146 0.4600146 0.1202064 0.1202064 0.06126938 0.058850177 0.058850177 0.06536053 0.06536053 0.08158769 0.052978884 0.13960415 0.14084339 0.14007576 0.14084339 0.13960415 0.4182635 0.1443778 0.1508984 0.14672318 0.049371034 0.4600146

$$$$
CHEMBL1085692
     RDKit          3D

 64 67  0  0  0  0  0  0  0  0999 V2000
   14.6834   -7.3008   11.7225 C   0  0  0  0  0  0  0  0  0  0  0  0
   15.2774   -5.9316   11.3172 N   0  0  0  0  0  0  0  0  0  0  0  0
   15.9300   -5.2530   12.5352 C   0  0  0  0  0  0  0  0  0  0  0  0
   16.2923   -6.0375   10.1526 C   0  0  0  0  0  0  0  0  0  0  0  0
   15.5993   -6.5692    8.8893 C   0  0  0  0  0  0  0  0  0  0  0  0
   14.5542   -5.5430    8.4001 C   0  0  0  0  0  0  0  0  0  0  0  0
   15.1836   -4.5449    7.4457 C   0  0  0  0  0  0  0  0  0  0  0  0
   16.3859   -4.3594    7.3886 O   0  0  0  0  0  0  0  0  0  0  0  0
   14.2892   -3.9272    6.6441 N   0  0  0  0  0  0  0  0  0  0  0  0
   14.6882   -3.0589    5.5552 C   0  0  0  0  0  0  0  0  0  0  0  0
   14.9040   -3.7684    4.1917 C   0  0  1  0  0  0  0  0  0  0  0  0
   15.0828   -5.3154    4.2390 C   0  0  0  0  0  0  0  0  0  0  0  0
   15.2204   -5.9077    2.8305 C   0  0  0  0  0  0  0  0  0  0  0  0
   14.1059   -5.4133    1.8829 C   0  0  1  0  0  0  0  0  0  0  0  0
   12.7128   -6.0662    2.1226 C   0  0  2  0  0  0  0  0  0  0  0  0
   12.7576   -7.5912    2.0355 C   0  0  0  0  0  0  0  0  0  0  0  0
   12.3242   -8.3770    3.1068 C   0  0  0  0  0  0  0  0  0  0  0  0
   12.4016   -9.7648    3.0219 C   0  0  0  0  0  0  0  0  0  0  0  0
   12.9059  -10.3676    1.8713 C   0  0  0  0  0  0  0  0  0  0  0  0
   13.3272   -9.5913    0.7967 C   0  0  0  0  0  0  0  0  0  0  0  0
   13.2504   -8.2070    0.8802 C   0  0  0  0  0  0  0  0  0  0  0  0
   11.7486   -5.5145    1.1710 N   0  0  0  0  0  0  0  0  0  0  0  0
   11.8124   -4.1554    0.7867 C   0  0  0  0  0  0  0  0  0  0  0  0
   10.7992   -3.6430   -0.0245 C   0  0  0  0  0  0  0  0  0  0  0  0
    9.7452   -4.3940   -0.3088 F   0  0  0  0  0  0  0  0  0  0  0  0
   10.8386   -2.3622   -0.5273 C   0  0  0  0  0  0  0  0  0  0  0  0
   11.8857   -1.5286   -0.1663 C   0  0  0  0  0  0  0  0  0  0  0  0
   11.9570    0.2431   -0.8266 Br  0  0  0  0  0  0  0  0  0  0  0  0
   12.8902   -2.0069    0.6804 C   0  0  0  0  0  0  0  0  0  0  0  0
   12.8881   -3.3301    1.1337 C   0  0  0  0  0  0  0  0  0  0  0  0
   14.0302   -3.8699    1.9787 C   0  0  1  0  0  0  0  0  0  0  0  0
   13.8099   -3.4603    3.3270 O   0  0  0  0  0  0  0  0  0  0  0  0
   15.5394   -7.9357   11.9678 H   0  0  0  0  0  0  0  0  0  0  0  0
   14.1006   -7.7185   10.9004 H   0  0  0  0  0  0  0  0  0  0  0  0
   14.0029   -7.1559   12.5615 H   0  0  0  0  0  0  0  0  0  0  0  0
   16.7606   -5.9038   12.8225 H   0  0  0  0  0  0  0  0  0  0  0  0
   15.1664   -5.1905   13.3147 H   0  0  0  0  0  0  0  0  0  0  0  0
   16.2746   -4.2620   12.2253 H   0  0  0  0  0  0  0  0  0  0  0  0
   16.6811   -5.0218    9.9915 H   0  0  0  0  0  0  0  0  0  0  0  0
   17.1086   -6.6770   10.4988 H   0  0  0  0  0  0  0  0  0  0  0  0
   16.3506   -6.8049    8.1366 H   0  0  0  0  0  0  0  0  0  0  0  0
   15.1239   -7.5412    9.0226 H   0  0  0  0  0  0  0  0  0  0  0  0
   13.7453   -6.0592    7.8902 H   0  0  0  0  0  0  0  0  0  0  0  0
   14.0786   -4.9761    9.2045 H   0  0  0  0  0  0  0  0  0  0  0  0
   13.3183   -4.1244    6.7845 H   0  0  0  0  0  0  0  0  0  0  0  0
   13.9105   -2.3007    5.4765 H   0  0  0  0  0  0  0  0  0  0  0  0
   15.5982   -2.5169    5.8278 H   0  0  0  0  0  0  0  0  0  0  0  0
   15.8080   -3.3177    3.7778 H   0  0  0  0  0  0  0  0  0  0  0  0
   15.9629   -5.5825    4.8242 H   0  0  0  0  0  0  0  0  0  0  0  0
   14.2348   -5.7823    4.7443 H   0  0  0  0  0  0  0  0  0  0  0  0
   16.1869   -5.6111    2.4180 H   0  0  0  0  0  0  0  0  0  0  0  0
   15.2476   -6.9947    2.8898 H   0  0  0  0  0  0  0  0  0  0  0  0
   14.4209   -5.6382    0.8628 H   0  0  0  0  0  0  0  0  0  0  0  0
   12.3657   -5.8150    3.1282 H   0  0  0  0  0  0  0  0  0  0  0  0
   11.9332   -7.9157    4.0028 H   0  0  0  0  0  0  0  0  0  0  0  0
   12.0690  -10.3741    3.8509 H   0  0  0  0  0  0  0  0  0  0  0  0
   12.9502  -11.4447    1.8040 H   0  0  0  0  0  0  0  0  0  0  0  0
   13.6941  -10.0604   -0.1045 H   0  0  0  0  0  0  0  0  0  0  0  0
   13.5641   -7.6077    0.0384 H   0  0  0  0  0  0  0  0  0  0  0  0
   10.9203   -6.0734    1.0265 H   0  0  0  0  0  0  0  0  0  0  0  0
   10.0428   -2.0189   -1.1799 H   0  0  0  0  0  0  0  0  0  0  0  0
   13.7007   -1.3465    0.9386 H   0  0  0  0  0  0  0  0  0  0  0  0
   14.9571   -3.4356    1.6023 H   0  0  0  0  0  0  0  0  0  0  0  0
   14.5055   -5.3295   11.0089 H   0  0  0  0  0  0  0  0  0  0  0  0
  1  2  1  0
  1 33  1  0
  1 34  1  0
  1 35  1  0
  2  3  1  0
  2  4  1  0
  2 64  1  0
  3 36  1  0
  3 37  1  0
  3 38  1  0
  4  5  1  0
  4 39  1  0
  4 40  1  0
  5  6  1  0
  5 41  1  0
  5 42  1  0
  6  7  1  0
  6 43  1  0
  6 44  1  0
  7  8  2  0
  7  9  1  0
  9 10  1  0
  9 45  1  0
 10 11  1  0
 10 46  1  0
 10 47  1  0
 11 12  1  0
 11 32  1  0
 11 48  1  6
 12 13  1  0
 12 49  1  0
 12 50  1  0
 13 14  1  0
 13 51  1  0
 13 52  1  0
 14 15  1  0
 14 31  1  0
 14 53  1  6
 15 16  1  0
 15 22  1  0
 15 54  1  1
 16 17  2  0
 16 21  1  0
 17 18  1  0
 17 55  1  0
 18 19  2  0
 18 56  1  0
 19 20  1  0
 19 57  1  0
 20 21  2  0
 20 58  1  0
 21 59  1  0
 22 23  1  0
 22 60  1  0
 23 24  2  0
 23 30  1  0
 24 25  1  0
 24 26  1  0
 26 27  2  0
 26 61  1  0
 27 28  1  0
 27 29  1  0
 29 30  2  0
 29 62  1  0
 30 31  1  0
 31 32  1  0
 31 63  1  6
M  CHG  1   2   1
M  END
>  <ID>  (20) 
CHEMBL1085692

>  <IC50[nM]>  (20) 
5

>  <kcal/mol experimental dG>  (20) 
-11.394990672677858

>  <kJ/mol experimental dG>  (20) 
-47.67664097448416

>  <experimental dG reference field>  (20) 
IC50[nM]

>  <experimental dG reference units>  (20) 
nM

>  <atom.dprop.PartialCharge>  (20) 
0.077716626 -0.68488735 0.077716626 0.10581407 -0.09494339 -0.15932487 0.66256905 -0.6032843 -0.57589287 0.09291978 0.12462561 -0.10466331 -0.07531711 -0.09435058 0.28170955 -0.091441974 -0.11018899 -0.13036974 -0.11702624 -0.13036974 -0.11018899 -0.7309739 0.17321375 0.054874517 -0.14330497 -0.10192196 -0.05290351 -0.07401617 -0.059176754 -0.1417674 0.20976554 -0.39754894 0.10410032 0.10410032 0.10410032 0.10410032 0.10410032 0.10410032 0.1024186 0.1024186 0.078328274 0.078328274 0.07125125 0.07125125 0.3064139 0.071274735 0.071274735 0.04870776 0.05841111 0.05841111 0.054294802 0.054294802 0.07755195 0.052232772 0.13738549 0.13862467 0.13785705 0.13862467 0.13738549 0.425261 0.16547945 0.1500287 0.06289156 0.44793355

$$$$
CHEMBL1084143
     RDKit          3D

 74 77  0  0  0  0  0  0  0  0999 V2000
   11.3979   -0.1021   -2.1574 C   0  0  0  0  0  0  0  0  0  0  0  0
   11.9038   -0.1354   -0.7457 C   0  0  0  0  0  0  0  0  0  0  0  0
   11.0501    0.7757    0.0856 C   0  0  0  0  0  0  0  0  0  0  0  0
   11.8578   -1.5536   -0.1865 C   0  0  0  0  0  0  0  0  0  0  0  0
   10.8089   -2.4050   -0.5396 C   0  0  0  0  0  0  0  0  0  0  0  0
   10.7743   -3.7096   -0.0570 C   0  0  0  0  0  0  0  0  0  0  0  0
   11.7936   -4.1831    0.7614 C   0  0  0  0  0  0  0  0  0  0  0  0
   12.8662   -3.3440    1.1312 C   0  0  0  0  0  0  0  0  0  0  0  0
   12.8594   -2.0221    0.6688 C   0  0  0  0  0  0  0  0  0  0  0  0
   14.0156   -3.8719    1.9779 C   0  0  1  0  0  0  0  0  0  0  0  0
   13.8095   -3.4697    3.3345 O   0  0  0  0  0  0  0  0  0  0  0  0
   14.9090   -3.7899    4.1939 C   0  0  1  0  0  0  0  0  0  0  0  0
   14.7292   -3.0772    5.5493 C   0  0  0  0  0  0  0  0  0  0  0  0
   14.3931   -3.9357    6.7113 N   0  0  0  0  0  0  0  0  0  0  0  0
   15.6866   -4.1881    7.8512 S   0  0  0  0  0  6  0  0  0  0  0  0
   15.9605   -2.8994    8.4965 O   0  0  0  0  0  0  0  0  0  0  0  0
   16.7692   -4.9053    7.1723 O   0  0  0  0  0  0  0  0  0  0  0  0
   14.8572   -5.3740    9.0989 C   0  0  0  0  0  0  0  0  0  0  0  0
   15.9171   -5.9921   10.0050 C   0  0  0  0  0  0  0  0  0  0  0  0
   15.3040   -6.9172   11.0141 C   0  0  0  0  0  0  0  0  0  0  0  0
   16.3536   -7.4832   11.8564 N   0  0  0  0  0  0  0  0  0  0  0  0
   15.7569   -8.3836   12.8386 C   0  0  0  0  0  0  0  0  0  0  0  0
   17.2969   -8.2258   11.0254 C   0  0  0  0  0  0  0  0  0  0  0  0
   15.0802   -5.3264    4.2516 C   0  0  0  0  0  0  0  0  0  0  0  0
   15.2184   -5.9103    2.8356 C   0  0  0  0  0  0  0  0  0  0  0  0
   14.1038   -5.4145    1.8827 C   0  0  1  0  0  0  0  0  0  0  0  0
   12.7108   -6.0690    2.1214 C   0  0  2  0  0  0  0  0  0  0  0  0
   12.7593   -7.5926    2.0373 C   0  0  0  0  0  0  0  0  0  0  0  0
   13.2528   -8.2067    0.8813 C   0  0  0  0  0  0  0  0  0  0  0  0
   13.3297   -9.5928    0.7978 C   0  0  0  0  0  0  0  0  0  0  0  0
   12.9076  -10.3673    1.8725 C   0  0  0  0  0  0  0  0  0  0  0  0
   12.4034   -9.7655    3.0228 C   0  0  0  0  0  0  0  0  0  0  0  0
   12.3256   -8.3763    3.1078 C   0  0  0  0  0  0  0  0  0  0  0  0
   11.7374   -5.5233    1.1763 N   0  0  0  0  0  0  0  0  0  0  0  0
   12.0073   -0.7596   -2.7774 H   0  0  0  0  0  0  0  0  0  0  0  0
   11.4572    0.9166   -2.5407 H   0  0  0  0  0  0  0  0  0  0  0  0
   10.3615   -0.4390   -2.1801 H   0  0  0  0  0  0  0  0  0  0  0  0
   12.9225    0.2532   -0.7443 H   0  0  0  0  0  0  0  0  0  0  0  0
   11.4035    0.7643    1.1166 H   0  0  0  0  0  0  0  0  0  0  0  0
   10.0154    0.4346    0.0524 H   0  0  0  0  0  0  0  0  0  0  0  0
   11.1110    1.7902   -0.3082 H   0  0  0  0  0  0  0  0  0  0  0  0
   10.0204   -2.0579   -1.1913 H   0  0  0  0  0  0  0  0  0  0  0  0
    9.9573   -4.3549   -0.3431 H   0  0  0  0  0  0  0  0  0  0  0  0
   13.6721   -1.3692    0.9509 H   0  0  0  0  0  0  0  0  0  0  0  0
   14.9390   -3.4275    1.6025 H   0  0  0  0  0  0  0  0  0  0  0  0
   15.8061   -3.3644    3.7393 H   0  0  0  0  0  0  0  0  0  0  0  0
   15.6460   -2.5318    5.7826 H   0  0  0  0  0  0  0  0  0  0  0  0
   13.9634   -2.3063    5.4584 H   0  0  0  0  0  0  0  0  0  0  0  0
   14.0645   -4.8324    6.3635 H   0  0  0  0  0  0  0  0  0  0  0  0
   14.1276   -4.7955    9.6643 H   0  0  0  0  0  0  0  0  0  0  0  0
   14.3350   -6.1477    8.5414 H   0  0  0  0  0  0  0  0  0  0  0  0
   16.6443   -6.5599    9.4232 H   0  0  0  0  0  0  0  0  0  0  0  0
   16.4626   -5.2168   10.5445 H   0  0  0  0  0  0  0  0  0  0  0  0
   14.5998   -6.3628   11.6345 H   0  0  0  0  0  0  0  0  0  0  0  0
   14.7790   -7.7211   10.4983 H   0  0  0  0  0  0  0  0  0  0  0  0
   15.2319   -9.1875   12.3228 H   0  0  0  0  0  0  0  0  0  0  0  0
   15.0527   -7.8292   13.4590 H   0  0  0  0  0  0  0  0  0  0  0  0
   16.5405   -8.8062   13.4674 H   0  0  0  0  0  0  0  0  0  0  0  0
   16.7719   -9.0297   10.5095 H   0  0  0  0  0  0  0  0  0  0  0  0
   18.0805   -8.6484   11.6542 H   0  0  0  0  0  0  0  0  0  0  0  0
   17.7424   -7.5536   10.2921 H   0  0  0  0  0  0  0  0  0  0  0  0
   15.9570   -5.5928    4.8416 H   0  0  0  0  0  0  0  0  0  0  0  0
   14.2182   -5.7833    4.7368 H   0  0  0  0  0  0  0  0  0  0  0  0
   16.1821   -5.6020    2.4289 H   0  0  0  0  0  0  0  0  0  0  0  0
   15.2502   -6.9993    2.8743 H   0  0  0  0  0  0  0  0  0  0  0  0
   14.4134   -5.6570    0.8656 H   0  0  0  0  0  0  0  0  0  0  0  0
   12.3692   -5.7931    3.1202 H   0  0  0  0  0  0  0  0  0  0  0  0
   13.5722   -7.6049    0.0431 H   0  0  0  0  0  0  0  0  0  0  0  0
   13.7130  -10.0631   -0.0960 H   0  0  0  0  0  0  0  0  0  0  0  0
   12.9657  -11.4445    1.8120 H   0  0  0  0  0  0  0  0  0  0  0  0
   12.0728  -10.3765    3.8502 H   0  0  0  0  0  0  0  0  0  0  0  0
   11.9366   -7.9114    4.0019 H   0  0  0  0  0  0  0  0  0  0  0  0
   10.9582   -6.1105    0.9179 H   0  0  0  0  0  0  0  0  0  0  0  0
   16.8401   -6.7382   12.3344 H   0  0  0  0  0  0  0  0  0  0  0  0
  1  2  1  0
  1 35  1  0
  1 36  1  0
  1 37  1  0
  2  3  1  0
  2  4  1  0
  2 38  1  0
  3 39  1  0
  3 40  1  0
  3 41  1  0
  4  5  2  0
  4  9  1  0
  5  6  1  0
  5 42  1  0
  6  7  2  0
  6 43  1  0
  7  8  1  0
  7 34  1  0
  8  9  2  0
  8 10  1  0
  9 44  1  0
 10 11  1  0
 10 26  1  0
 10 45  1  6
 11 12  1  0
 12 13  1  0
 12 24  1  0
 12 46  1  6
 13 14  1  0
 13 47  1  0
 13 48  1  0
 14 15  1  0
 14 49  1  0
 15 16  2  0
 15 17  2  0
 15 18  1  0
 18 19  1  0
 18 50  1  0
 18 51  1  0
 19 20  1  0
 19 52  1  0
 19 53  1  0
 20 21  1  0
 20 54  1  0
 20 55  1  0
 21 22  1  0
 21 23  1  0
 21 74  1  0
 22 56  1  0
 22 57  1  0
 22 58  1  0
 23 59  1  0
 23 60  1  0
 23 61  1  0
 24 25  1  0
 24 62  1  0
 24 63  1  0
 25 26  1  0
 25 64  1  0
 25 65  1  0
 26 27  1  0
 26 66  1  6
 27 28  1  0
 27 34  1  0
 27 67  1  1
 28 29  2  0
 28 33  1  0
 29 30  1  0
 29 68  1  0
 30 31  2  0
 30 69  1  0
 31 32  1  0
 31 70  1  0
 32 33  2  0
 32 71  1  0
 33 72  1  0
 34 73  1  0
M  CHG  1  21   1
M  END
>  <ID>  (21) 
CHEMBL1084143

>  <IC50[nM]>  (21) 
2

>  <kcal/mol experimental dG>  (21) 
-11.941250918631892

>  <kJ/mol experimental dG>  (21) 
-49.96219384355584

>  <experimental dG reference field>  (21) 
IC50[nM]

>  <experimental dG reference units>  (21) 
nM

>  <atom.dprop.PartialCharge>  (21) 
-0.08478662 -0.018624142 -0.08478662 -0.10281434 -0.08566095 -0.1828598 0.16654052 -0.1519048 -0.08371052 0.20094033 -0.39774176 0.12563293 0.217481 -0.92209053 1.4588258 -0.64281505 -0.64281505 -0.31567577 -0.07377399 0.10491364 -0.6876935 0.07570669 0.07570669 -0.10269305 -0.075603195 -0.09653326 0.2787298 -0.09286791 -0.11113651 -0.13059872 -0.11725521 -0.13059872 -0.11113651 -0.7326644 0.03898836 0.03898836 0.03898836 0.056363516 0.03898836 0.03898836 0.03898836 0.13396965 0.13309756 0.1337431 0.061116245 0.051644742 0.06187277 0.06187277 0.44671044 0.110841215 0.110841215 0.070273355 0.070273355 0.10331005 0.10331005 0.10417083 0.10417083 0.10417083 0.10417083 0.10417083 0.10417083 0.059435032 0.059435032 0.054023944 0.054023944 0.07694863 0.05053129 0.1371565 0.13839568 0.13762805 0.13839568 0.1371565 0.41581595 0.44722164

$$$$
CHEMBL1096002
     RDKit          3D

 52 55  0  0  0  0  0  0  0  0999 V2000
   14.9398   -6.5745    8.8289 O   0  0  0  0  0  0  0  0  0  0  0  0
   14.5278   -5.2354    8.6990 C   0  0  0  0  0  0  0  0  0  0  0  0
   15.2970   -4.6432    7.5290 C   0  0  0  0  0  0  0  0  0  0  0  0
   14.2597   -3.9478    6.6599 N   0  0  0  0  0  0  0  0  0  0  0  0
   14.7233   -3.0473    5.5240 C   0  0  0  0  0  0  0  0  0  0  0  0
   14.9007   -3.7858    4.1855 C   0  0  1  0  0  0  0  0  0  0  0  0
   15.0793   -5.3248    4.2415 C   0  0  0  0  0  0  0  0  0  0  0  0
   15.2121   -5.9083    2.8276 C   0  0  0  0  0  0  0  0  0  0  0  0
   14.0921   -5.4092    1.8855 C   0  0  1  0  0  0  0  0  0  0  0  0
   12.7002   -6.0672    2.1302 C   0  0  2  0  0  0  0  0  0  0  0  0
   12.7513   -7.5891    2.0317 C   0  0  0  0  0  0  0  0  0  0  0  0
   13.2402   -8.2009    0.8726 C   0  0  0  0  0  0  0  0  0  0  0  0
   13.3148   -9.5869    0.7909 C   0  0  0  0  0  0  0  0  0  0  0  0
   12.8991  -10.3621    1.8687 C   0  0  0  0  0  0  0  0  0  0  0  0
   12.3947   -9.7617    3.0192 C   0  0  0  0  0  0  0  0  0  0  0  0
   12.3191   -8.3736    3.1017 C   0  0  0  0  0  0  0  0  0  0  0  0
   11.7089   -5.5107    1.2081 N   0  0  0  0  0  0  0  0  0  0  0  0
   11.7887   -4.1714    0.7851 C   0  0  0  0  0  0  0  0  0  0  0  0
   10.7851   -3.6834   -0.0443 C   0  0  0  0  0  0  0  0  0  0  0  0
    9.7425   -4.4576   -0.3412 F   0  0  0  0  0  0  0  0  0  0  0  0
   10.8182   -2.3939   -0.5448 C   0  0  0  0  0  0  0  0  0  0  0  0
   11.8627   -1.5566   -0.1858 C   0  0  0  0  0  0  0  0  0  0  0  0
   11.9178    0.0446   -0.8143 Cl  0  0  0  0  0  0  0  0  0  0  0  0
   12.8576   -2.0189    0.6758 C   0  0  0  0  0  0  0  0  0  0  0  0
   12.8659   -3.3411    1.1370 C   0  0  0  0  0  0  0  0  0  0  0  0
   14.0100   -3.8683    1.9858 C   0  0  1  0  0  0  0  0  0  0  0  0
   13.8029   -3.4589    3.3367 O   0  0  0  0  0  0  0  0  0  0  0  0
   14.7621   -6.8963    9.7167 H   0  0  0  0  0  0  0  0  0  0  0  0
   13.4445   -5.1921    8.5389 H   0  0  0  0  0  0  0  0  0  0  0  0
   14.7695   -4.6581    9.5903 H   0  0  0  0  0  0  0  0  0  0  0  0
   16.0064   -3.8769    7.8397 H   0  0  0  0  0  0  0  0  0  0  0  0
   15.7569   -5.4005    6.8992 H   0  0  0  0  0  0  0  0  0  0  0  0
   13.6953   -4.6762    6.2499 H   0  0  0  0  0  0  0  0  0  0  0  0
   13.8991   -2.3346    5.4864 H   0  0  0  0  0  0  0  0  0  0  0  0
   15.6255   -2.5530    5.8731 H   0  0  0  0  0  0  0  0  0  0  0  0
   15.7943   -3.3455    3.7481 H   0  0  0  0  0  0  0  0  0  0  0  0
   15.9690   -5.5846    4.8129 H   0  0  0  0  0  0  0  0  0  0  0  0
   14.2339   -5.7908    4.7491 H   0  0  0  0  0  0  0  0  0  0  0  0
   16.1789   -5.6110    2.4141 H   0  0  0  0  0  0  0  0  0  0  0  0
   15.2359   -6.9961    2.8742 H   0  0  0  0  0  0  0  0  0  0  0  0
   14.3995   -5.6237    0.8615 H   0  0  0  0  0  0  0  0  0  0  0  0
   12.3710   -5.8212    3.1419 H   0  0  0  0  0  0  0  0  0  0  0  0
   13.5515   -7.6017    0.0296 H   0  0  0  0  0  0  0  0  0  0  0  0
   13.6844  -10.0576   -0.1073 H   0  0  0  0  0  0  0  0  0  0  0  0
   12.9569  -11.4391    1.8078 H   0  0  0  0  0  0  0  0  0  0  0  0
   12.0632  -10.3709    3.8491 H   0  0  0  0  0  0  0  0  0  0  0  0
   11.9276   -7.9067    3.9936 H   0  0  0  0  0  0  0  0  0  0  0  0
   10.8156   -5.9913    1.1612 H   0  0  0  0  0  0  0  0  0  0  0  0
   10.0246   -2.0468   -1.1894 H   0  0  0  0  0  0  0  0  0  0  0  0
   13.6495   -1.3525    0.9762 H   0  0  0  0  0  0  0  0  0  0  0  0
   14.9406   -3.4307    1.6172 H   0  0  0  0  0  0  0  0  0  0  0  0
   13.7207   -3.3716    7.2905 H   0  0  0  0  0  0  0  0  0  0  0  0
  1  2  1  0
  1 28  1  0
  2  3  1  0
  2 29  1  0
  2 30  1  0
  3  4  1  0
  3 31  1  0
  3 32  1  0
  4  5  1  0
  4 33  1  0
  4 52  1  0
  5  6  1  0
  5 34  1  0
  5 35  1  0
  6  7  1  0
  6 27  1  0
  6 36  1  6
  7  8  1  0
  7 37  1  0
  7 38  1  0
  8  9  1  0
  8 39  1  0
  8 40  1  0
  9 10  1  0
  9 26  1  0
  9 41  1  6
 10 11  1  0
 10 17  1  0
 10 42  1  1
 11 12  2  0
 11 16  1  0
 12 13  1  0
 12 43  1  0
 13 14  2  0
 13 44  1  0
 14 15  1  0
 14 45  1  0
 15 16  2  0
 15 46  1  0
 16 47  1  0
 17 18  1  0
 17 48  1  0
 18 19  2  0
 18 25  1  0
 19 20  1  0
 19 21  1  0
 21 22  2  0
 21 49  1  0
 22 23  1  0
 22 24  1  0
 24 25  2  0
 24 50  1  0
 25 26  1  0
 26 27  1  0
 26 51  1  6
M  CHG  1   4   1
M  END
>  <ID>  (22) 
CHEMBL1096002

>  <IC50[nM]>  (22) 
7

>  <kcal/mol experimental dG>  (22) 
-11.1943977818631

>  <kJ/mol experimental dG>  (22) 
-46.837360319315216

>  <experimental dG reference field>  (22) 
IC50[nM]

>  <experimental dG reference units>  (22) 
nM

>  <atom.dprop.PartialCharge>  (22) 
-0.5815436 0.11522585 0.079025164 -0.76782435 0.09511864 0.123956874 -0.10843746 -0.08172999 -0.09121532 0.28589264 -0.088752545 -0.10749969 -0.12768032 -0.114336886 -0.12768032 -0.10749969 -0.7267617 0.16928677 0.0718757 -0.14260757 -0.119919 0.0019528084 -0.08125879 -0.071147434 -0.13473156 0.20979276 -0.4260134 0.44256052 0.05131761 0.05131761 0.12324606 0.12324606 0.44809017 0.114549026 0.114549026 0.05881161 0.055622667 0.055622667 0.06499088 0.06499088 0.082326904 0.05492215 0.14007497 0.14131421 0.14054658 0.14131421 0.14007497 0.42441347 0.16771962 0.15369025 0.05110974 0.44809017

$$$$
CHEMBL1089056
     RDKit          3D

 51 54  0  0  0  0  0  0  0  0999 V2000
   12.8440    0.7919    0.0923 C   0  0  0  0  0  0  0  0  0  0  0  0
   11.9510   -0.1740   -0.7292 C   0  0  0  0  0  0  0  0  0  0  0  0
   10.5043    0.3281   -0.7907 C   0  0  0  0  0  0  0  0  0  0  0  0
   12.4899   -0.2213   -2.1417 C   0  0  0  0  0  0  0  0  0  0  0  0
   11.8886   -1.5912   -0.1659 C   0  0  0  0  0  0  0  0  0  0  0  0
   10.8674   -2.4721   -0.5416 C   0  0  0  0  0  0  0  0  0  0  0  0
   10.7974   -3.7635   -0.0404 C   0  0  0  0  0  0  0  0  0  0  0  0
   11.8031   -4.2332    0.7903 C   0  0  0  0  0  0  0  0  0  0  0  0
   12.8759   -3.4004    1.1456 C   0  0  0  0  0  0  0  0  0  0  0  0
   12.8695   -2.0850    0.7008 C   0  0  0  0  0  0  0  0  0  0  0  0
   14.0244   -3.9056    1.9931 C   0  0  1  0  0  0  0  0  0  0  0  0
   13.7945   -3.4603    3.3342 O   0  0  0  0  0  0  0  0  0  0  0  0
   14.8679   -3.7921    4.2158 C   0  0  0  0  0  0  0  0  0  0  0  0
   15.0733   -5.3223    4.2605 C   0  0  0  0  0  0  0  0  0  0  0  0
   15.2307   -5.9110    2.8490 C   0  0  0  0  0  0  0  0  0  0  0  0
   14.1153   -5.4365    1.8937 C   0  0  1  0  0  0  0  0  0  0  0  0
   12.7183   -6.0874    2.1403 C   0  0  2  0  0  0  0  0  0  0  0  0
   12.7673   -7.6067    2.0472 C   0  0  0  0  0  0  0  0  0  0  0  0
   12.3297   -8.3923    3.1162 C   0  0  0  0  0  0  0  0  0  0  0  0
   12.4058   -9.7806    3.0303 C   0  0  0  0  0  0  0  0  0  0  0  0
   12.9252  -10.3773    1.8827 C   0  0  0  0  0  0  0  0  0  0  0  0
   13.3326   -9.5998    0.8058 C   0  0  0  0  0  0  0  0  0  0  0  0
   13.2534   -8.2136    0.8875 C   0  0  0  0  0  0  0  0  0  0  0  0
   11.7244   -5.5627    1.2182 N   0  0  0  0  0  0  0  0  0  0  0  0
   12.9419    1.8039   -0.3195 H   0  0  0  0  0  0  0  0  0  0  0  0
   13.8412    0.3849    0.0936 H   0  0  0  0  0  0  0  0  0  0  0  0
   12.5513    0.8599    1.1381 H   0  0  0  0  0  0  0  0  0  0  0  0
   10.1585    0.2508    0.1995 H   0  0  0  0  0  0  0  0  0  0  0  0
    9.8173   -0.1840   -1.4404 H   0  0  0  0  0  0  0  0  0  0  0  0
   10.2881    1.3288   -1.0813 H   0  0  0  0  0  0  0  0  0  0  0  0
   12.7546    0.7362   -2.5815 H   0  0  0  0  0  0  0  0  0  0  0  0
   11.6835   -0.6584   -2.7076 H   0  0  0  0  0  0  0  0  0  0  0  0
   13.3441   -0.8652   -2.2592 H   0  0  0  0  0  0  0  0  0  0  0  0
   10.0789   -2.1827   -1.2109 H   0  0  0  0  0  0  0  0  0  0  0  0
    9.9625   -4.3964   -0.3281 H   0  0  0  0  0  0  0  0  0  0  0  0
   13.7124   -1.5054    1.0214 H   0  0  0  0  0  0  0  0  0  0  0  0
   14.9481   -3.4636    1.6062 H   0  0  0  0  0  0  0  0  0  0  0  0
   15.7885   -3.3233    3.8717 H   0  0  0  0  0  0  0  0  0  0  0  0
   14.6565   -3.4018    5.2084 H   0  0  0  0  0  0  0  0  0  0  0  0
   15.9488   -5.5615    4.8654 H   0  0  0  0  0  0  0  0  0  0  0  0
   14.2172   -5.7782    4.7576 H   0  0  0  0  0  0  0  0  0  0  0  0
   16.1993   -5.6154    2.4368 H   0  0  0  0  0  0  0  0  0  0  0  0
   15.2605   -6.9979    2.9035 H   0  0  0  0  0  0  0  0  0  0  0  0
   14.4350   -5.6514    0.8706 H   0  0  0  0  0  0  0  0  0  0  0  0
   12.3839   -5.8281    3.1467 H   0  0  0  0  0  0  0  0  0  0  0  0
   11.9266   -7.9256    4.0075 H   0  0  0  0  0  0  0  0  0  0  0  0
   12.0849  -10.3883    3.8589 H   0  0  0  0  0  0  0  0  0  0  0  0
   12.9621  -11.4564    1.8116 H   0  0  0  0  0  0  0  0  0  0  0  0
   13.7105  -10.0654   -0.0977 H   0  0  0  0  0  0  0  0  0  0  0  0
   13.5752   -7.6146    0.0540 H   0  0  0  0  0  0  0  0  0  0  0  0
   10.8173   -5.9953    1.3112 H   0  0  0  0  0  0  0  0  0  0  0  0
  1  2  1  0
  1 25  1  0
  1 26  1  0
  1 27  1  0
  2  3  1  0
  2  4  1  0
  2  5  1  0
  3 28  1  0
  3 29  1  0
  3 30  1  0
  4 31  1  0
  4 32  1  0
  4 33  1  0
  5  6  2  0
  5 10  1  0
  6  7  1  0
  6 34  1  0
  7  8  2  0
  7 35  1  0
  8  9  1  0
  8 24  1  0
  9 10  2  0
  9 11  1  0
 10 36  1  0
 11 12  1  0
 11 16  1  0
 11 37  1  6
 12 13  1  0
 13 14  1  0
 13 38  1  0
 13 39  1  0
 14 15  1  0
 14 40  1  0
 14 41  1  0
 15 16  1  0
 15 42  1  0
 15 43  1  0
 16 17  1  0
 16 44  1  6
 17 18  1  0
 17 24  1  0
 17 45  1  1
 18 19  2  0
 18 23  1  0
 19 20  1  0
 19 46  1  0
 20 21  2  0
 20 47  1  0
 21 22  1  0
 21 48  1  0
 22 23  2  0
 22 49  1  0
 23 50  1  0
 24 51  1  0
M  END
>  <ID>  (23) 
CHEMBL1089056

>  <IC50[nM]>  (23) 
120

>  <kcal/mol experimental dG>  (23) 
-9.50034696775882

>  <kJ/mol experimental dG>  (23) 
-39.7494517131029

>  <experimental dG reference field>  (23) 
IC50[nM]

>  <experimental dG reference units>  (23) 
nM

>  <atom.dprop.PartialCharge>  (23) 
-0.08468442 -0.0088603385 -0.08468442 -0.08468442 -0.10018709 -0.08488694 -0.18902615 0.1565652 -0.14866585 -0.08708355 0.19763854 -0.41083103 0.13611892 -0.1164694 -0.07527256 -0.10235273 0.2770269 -0.09630626 -0.11484951 -0.13431188 -0.1209683 -0.13431188 -0.11484951 -0.73563117 0.03565172 0.03565172 0.03565172 0.03565172 0.03565172 0.03565172 0.03565172 0.03565172 0.03565172 0.13116437 0.12965296 0.13033825 0.057866268 0.04737051 0.04737051 0.05103744 0.05103744 0.046239614 0.046239614 0.072865814 0.04725086 0.13344324 0.13468234 0.13391474 0.13468234 0.13344324 0.41210285

$$$$
CHEMBL1093088
     RDKit          3D

 51 55  0  0  0  0  0  0  0  0999 V2000
   10.6683    0.3259   -0.9315 F   0  0  0  0  0  0  0  0  0  0  0  0
   11.9092   -0.1373   -0.7426 C   0  0  0  0  0  0  0  0  0  0  0  0
   12.5572    0.6970    0.0708 F   0  0  0  0  0  0  0  0  0  0  0  0
   12.5317   -0.1562   -1.9180 F   0  0  0  0  0  0  0  0  0  0  0  0
   11.8546   -1.5518   -0.1871 C   0  0  0  0  0  0  0  0  0  0  0  0
   10.8042   -2.4028   -0.5323 C   0  0  0  0  0  0  0  0  0  0  0  0
   10.7730   -3.7099   -0.0542 C   0  0  0  0  0  0  0  0  0  0  0  0
   11.8144   -4.1935    0.7396 C   0  0  0  0  0  0  0  0  0  0  0  0
   12.8923   -3.3560    1.0946 C   0  0  0  0  0  0  0  0  0  0  0  0
   12.8665   -2.0258    0.6545 C   0  0  0  0  0  0  0  0  0  0  0  0
   14.0494   -3.8568    1.9562 C   0  0  1  0  0  0  0  0  0  0  0  0
   13.8553   -3.4173    3.2710 O   0  0  0  0  0  0  0  0  0  0  0  0
   14.8976   -3.7605    4.1929 C   0  0  1  0  0  0  0  0  0  0  0  0
   14.6578   -3.1005    5.5680 C   0  0  0  0  0  0  0  0  0  0  0  0
   13.2465   -2.9226    5.9121 N   0  0  0  0  0  0  0  0  0  0  0  0
   12.6204   -3.1518    7.1038 C   0  0  0  0  0  0  0  0  0  0  0  0
   11.3473   -2.8639    7.0012 N   0  0  0  0  0  0  0  0  0  0  0  0
   11.2559   -2.4452    5.7470 C   0  0  0  0  0  0  0  0  0  0  0  0
   12.3327   -2.4354    5.0401 N   0  0  0  0  0  0  0  0  0  0  0  0
   15.0684   -5.3101    4.2439 C   0  0  0  0  0  0  0  0  0  0  0  0
   15.2209   -5.9171    2.8316 C   0  0  0  0  0  0  0  0  0  0  0  0
   14.1192   -5.4200    1.8687 C   0  0  1  0  0  0  0  0  0  0  0  0
   12.7212   -6.0707    2.1169 C   0  0  2  0  0  0  0  0  0  0  0  0
   12.7592   -7.5954    2.0346 C   0  0  0  0  0  0  0  0  0  0  0  0
   12.3228   -8.3777    3.1055 C   0  0  0  0  0  0  0  0  0  0  0  0
   12.4048   -9.7653    3.0253 C   0  0  0  0  0  0  0  0  0  0  0  0
   12.9049  -10.3677    1.8739 C   0  0  0  0  0  0  0  0  0  0  0  0
   13.3264   -9.5938    0.7972 C   0  0  0  0  0  0  0  0  0  0  0  0
   13.2517   -8.2084    0.8785 C   0  0  0  0  0  0  0  0  0  0  0  0
   11.7331   -5.5251    1.1808 N   0  0  0  0  0  0  0  0  0  0  0  0
   10.0213   -2.0601   -1.1960 H   0  0  0  0  0  0  0  0  0  0  0  0
    9.9490   -4.3496   -0.3314 H   0  0  0  0  0  0  0  0  0  0  0  0
   13.6823   -1.3752    0.9329 H   0  0  0  0  0  0  0  0  0  0  0  0
   14.9905   -3.4672    1.5172 H   0  0  0  0  0  0  0  0  0  0  0  0
   15.8414   -3.3531    3.8085 H   0  0  0  0  0  0  0  0  0  0  0  0
   15.1289   -3.6931    6.3577 H   0  0  0  0  0  0  0  0  0  0  0  0
   15.1239   -2.1134    5.5876 H   0  0  0  0  0  0  0  0  0  0  0  0
   13.1580   -3.5076    7.9813 H   0  0  0  0  0  0  0  0  0  0  0  0
   10.2992   -2.1530    5.3209 H   0  0  0  0  0  0  0  0  0  0  0  0
   15.9422   -5.5750    4.8418 H   0  0  0  0  0  0  0  0  0  0  0  0
   14.2208   -5.7508    4.7597 H   0  0  0  0  0  0  0  0  0  0  0  0
   16.1877   -5.6158    2.4310 H   0  0  0  0  0  0  0  0  0  0  0  0
   15.2476   -7.0045    2.9003 H   0  0  0  0  0  0  0  0  0  0  0  0
   14.4309   -5.6815    0.8489 H   0  0  0  0  0  0  0  0  0  0  0  0
   12.3740   -5.8074    3.1180 H   0  0  0  0  0  0  0  0  0  0  0  0
   11.9307   -7.9163    4.0008 H   0  0  0  0  0  0  0  0  0  0  0  0
   12.0690  -10.3755    3.8528 H   0  0  0  0  0  0  0  0  0  0  0  0
   12.9609  -11.4432    1.8091 H   0  0  0  0  0  0  0  0  0  0  0  0
   13.6968  -10.0592   -0.1007 H   0  0  0  0  0  0  0  0  0  0  0  0
   13.5613   -7.6079    0.0375 H   0  0  0  0  0  0  0  0  0  0  0  0
   10.8982   -6.0840    1.0444 H   0  0  0  0  0  0  0  0  0  0  0  0
  1  2  1  0
  2  3  1  0
  2  4  1  0
  2  5  1  0
  5  6  2  0
  5 10  1  0
  6  7  1  0
  6 31  1  0
  7  8  2  0
  7 32  1  0
  8  9  1  0
  8 30  1  0
  9 10  2  0
  9 11  1  0
 10 33  1  0
 11 12  1  0
 11 22  1  0
 11 34  1  6
 12 13  1  0
 13 14  1  0
 13 20  1  0
 13 35  1  6
 14 15  1  0
 14 36  1  0
 14 37  1  0
 15 16  1  0
 15 19  1  0
 16 17  2  0
 16 38  1  0
 17 18  1  0
 18 19  2  0
 18 39  1  0
 20 21  1  0
 20 40  1  0
 20 41  1  0
 21 22  1  0
 21 42  1  0
 21 43  1  0
 22 23  1  0
 22 44  1  6
 23 24  1  0
 23 30  1  0
 23 45  1  1
 24 25  2  0
 24 29  1  0
 25 26  1  0
 25 46  1  0
 26 27  2  0
 26 47  1  0
 27 28  1  0
 27 48  1  0
 28 29  2  0
 28 49  1  0
 29 50  1  0
 30 51  1  0
M  END
>  <ID>  (24) 
CHEMBL1093088

>  <IC50[nM]>  (24) 
6

>  <kcal/mol experimental dG>  (24) 
-11.286296985191486

>  <kJ/mol experimental dG>  (24) 
-47.22186658604118

>  <experimental dG reference field>  (24) 
IC50[nM]

>  <experimental dG reference units>  (24) 
nM

>  <atom.dprop.PartialCharge>  (24) 
-0.23694307 0.6871638 -0.23694307 -0.23694307 -0.22223936 -0.0378147 -0.20009942 0.21188354 -0.172064 -0.032146677 0.20266974 -0.39515686 0.119385466 0.045265287 -0.06300838 0.40943208 -0.685041 0.50223875 -0.51880914 -0.10438306 -0.077228494 -0.09767854 0.27709943 -0.094570935 -0.11283945 -0.13230173 -0.11895819 -0.13230173 -0.11283945 -0.7322651 0.14674766 0.14022699 0.14257252 0.064156495 0.060273383 0.07703881 0.07703881 0.067016795 0.07529163 0.060709357 0.060709357 0.05353748 0.05353748 0.075422116 0.048828304 0.13545343 0.13669258 0.13592497 0.13669258 0.13545343 0.41411296

$$$$
CHEMBL1084676
     RDKit          3D

 65 68  0  0  0  0  0  0  0  0999 V2000
   16.7713   -6.3756   12.0443 C   0  0  0  0  0  0  0  0  0  0  0  0
   15.7514   -7.3133   11.3477 N   0  0  0  0  0  0  0  0  0  0  0  0
   14.9672   -8.1032   12.4119 C   0  0  0  0  0  0  0  0  0  0  0  0
   14.7574   -6.5424   10.4444 C   0  0  0  0  0  0  0  0  0  0  0  0
   15.5368   -5.7840    9.4103 C   0  0  0  0  0  0  0  0  0  0  0  0
   14.7381   -5.4520    8.2799 O   0  0  0  0  0  0  0  0  0  0  0  0
   15.2652   -4.5977    7.4117 C   0  0  0  0  0  0  0  0  0  0  0  0
   16.5030   -4.3780    7.3160 O   0  0  0  0  0  0  0  0  0  0  0  0
   14.3099   -3.9820    6.6658 N   0  0  0  0  0  0  0  0  0  0  0  0
   14.6677   -3.0872    5.5706 C   0  0  0  0  0  0  0  0  0  0  0  0
   14.8962   -3.7746    4.1958 C   0  0  1  0  0  0  0  0  0  0  0  0
   15.0805   -5.3187    4.2370 C   0  0  0  0  0  0  0  0  0  0  0  0
   15.2182   -5.9065    2.8281 C   0  0  0  0  0  0  0  0  0  0  0  0
   14.1002   -5.4125    1.8825 C   0  0  1  0  0  0  0  0  0  0  0  0
   12.7104   -6.0683    2.1249 C   0  0  2  0  0  0  0  0  0  0  0  0
   12.7572   -7.5912    2.0353 C   0  0  0  0  0  0  0  0  0  0  0  0
   12.3235   -8.3758    3.1056 C   0  0  0  0  0  0  0  0  0  0  0  0
   12.4000   -9.7638    3.0213 C   0  0  0  0  0  0  0  0  0  0  0  0
   12.9028  -10.3655    1.8703 C   0  0  0  0  0  0  0  0  0  0  0  0
   13.3226   -9.5904    0.7944 C   0  0  0  0  0  0  0  0  0  0  0  0
   13.2483   -8.2048    0.8778 C   0  0  0  0  0  0  0  0  0  0  0  0
   11.7296   -5.5214    1.1862 N   0  0  0  0  0  0  0  0  0  0  0  0
   11.7939   -4.1799    0.7662 C   0  0  0  0  0  0  0  0  0  0  0  0
   10.7709   -3.7099   -0.0572 C   0  0  0  0  0  0  0  0  0  0  0  0
   10.8098   -2.4057   -0.5391 C   0  0  0  0  0  0  0  0  0  0  0  0
   11.8576   -1.5528   -0.1908 C   0  0  0  0  0  0  0  0  0  0  0  0
   11.9120   -0.1390   -0.7465 C   0  0  0  0  0  0  0  0  0  0  0  0
   10.6726    0.3357   -0.9277 F   0  0  0  0  0  0  0  0  0  0  0  0
   12.5628    0.6909    0.0665 F   0  0  0  0  0  0  0  0  0  0  0  0
   12.5294   -0.1587   -1.9235 F   0  0  0  0  0  0  0  0  0  0  0  0
   12.8610   -2.0226    0.6675 C   0  0  0  0  0  0  0  0  0  0  0  0
   12.8607   -3.3461    1.1326 C   0  0  0  0  0  0  0  0  0  0  0  0
   14.0132   -3.8683    1.9789 C   0  0  1  0  0  0  0  0  0  0  0  0
   13.8046   -3.4607    3.3297 O   0  0  0  0  0  0  0  0  0  0  0  0
   16.1866   -5.6689   12.6268 H   0  0  0  0  0  0  0  0  0  0  0  0
   17.3506   -5.8769   11.2816 H   0  0  0  0  0  0  0  0  0  0  0  0
   17.4106   -6.9779   12.6615 H   0  0  0  0  0  0  0  0  0  0  0  0
   14.4470   -7.3620   12.9985 H   0  0  0  0  0  0  0  0  0  0  0  0
   15.6920   -8.6413   13.0058 H   0  0  0  0  0  0  0  0  0  0  0  0
   14.2920   -8.7629   11.8873 H   0  0  0  0  0  0  0  0  0  0  0  0
   14.1090   -7.2702    9.9857 H   0  0  0  0  0  0  0  0  0  0  0  0
   14.1835   -5.9006   11.1076 H   0  0  0  0  0  0  0  0  0  0  0  0
   15.9172   -4.8470    9.8432 H   0  0  0  0  0  0  0  0  0  0  0  0
   16.3874   -6.3647    9.0642 H   0  0  0  0  0  0  0  0  0  0  0  0
   13.3335   -4.2030    6.8284 H   0  0  0  0  0  0  0  0  0  0  0  0
   13.9024   -2.3150    5.4890 H   0  0  0  0  0  0  0  0  0  0  0  0
   15.5773   -2.5399    5.8417 H   0  0  0  0  0  0  0  0  0  0  0  0
   15.8009   -3.3231    3.7840 H   0  0  0  0  0  0  0  0  0  0  0  0
   15.9617   -5.5860    4.8205 H   0  0  0  0  0  0  0  0  0  0  0  0
   14.2325   -5.7873    4.7380 H   0  0  0  0  0  0  0  0  0  0  0  0
   16.1842   -5.6070    2.4181 H   0  0  0  0  0  0  0  0  0  0  0  0
   15.2471   -6.9941    2.8842 H   0  0  0  0  0  0  0  0  0  0  0  0
   14.4141   -5.6391    0.8636 H   0  0  0  0  0  0  0  0  0  0  0  0
   12.3709   -5.8147    3.1322 H   0  0  0  0  0  0  0  0  0  0  0  0
   11.9359   -7.9140    4.0022 H   0  0  0  0  0  0  0  0  0  0  0  0
   12.0685  -10.3734    3.8509 H   0  0  0  0  0  0  0  0  0  0  0  0
   12.9503  -11.4423    1.8044 H   0  0  0  0  0  0  0  0  0  0  0  0
   13.6920  -10.0586   -0.1044 H   0  0  0  0  0  0  0  0  0  0  0  0
   13.5628   -7.6049    0.0369 H   0  0  0  0  0  0  0  0  0  0  0  0
   10.9190   -6.0992    1.0077 H   0  0  0  0  0  0  0  0  0  0  0  0
    9.9498   -4.3509   -0.3344 H   0  0  0  0  0  0  0  0  0  0  0  0
   10.0227   -2.0600   -1.1958 H   0  0  0  0  0  0  0  0  0  0  0  0
   13.6823   -1.3748    0.9343 H   0  0  0  0  0  0  0  0  0  0  0  0
   14.9410   -3.4338    1.6028 H   0  0  0  0  0  0  0  0  0  0  0  0
   16.2598   -7.9645   10.7739 H   0  0  0  0  0  0  0  0  0  0  0  0
  1  2  1  0
  1 35  1  0
  1 36  1  0
  1 37  1  0
  2  3  1  0
  2  4  1  0
  2 65  1  0
  3 38  1  0
  3 39  1  0
  3 40  1  0
  4  5  1  0
  4 41  1  0
  4 42  1  0
  5  6  1  0
  5 43  1  0
  5 44  1  0
  6  7  1  0
  7  8  2  0
  7  9  1  0
  9 10  1  0
  9 45  1  0
 10 11  1  0
 10 46  1  0
 10 47  1  0
 11 12  1  0
 11 34  1  0
 11 48  1  6
 12 13  1  0
 12 49  1  0
 12 50  1  0
 13 14  1  0
 13 51  1  0
 13 52  1  0
 14 15  1  0
 14 33  1  0
 14 53  1  6
 15 16  1  0
 15 22  1  0
 15 54  1  1
 16 17  2  0
 16 21  1  0
 17 18  1  0
 17 55  1  0
 18 19  2  0
 18 56  1  0
 19 20  1  0
 19 57  1  0
 20 21  2  0
 20 58  1  0
 21 59  1  0
 22 23  1  0
 22 60  1  0
 23 24  2  0
 23 32  1  0
 24 25  1  0
 24 61  1  0
 25 26  2  0
 25 62  1  0
 26 27  1  0
 26 31  1  0
 27 28  1  0
 27 29  1  0
 27 30  1  0
 31 32  2  0
 31 63  1  0
 32 33  1  0
 33 34  1  0
 33 64  1  6
M  CHG  1   2   1
M  END
>  <ID>  (25) 
CHEMBL1084676

>  <IC50[nM]>  (25) 
14

>  <kcal/mol experimental dG>  (25) 
-10.781167858036888

>  <kJ/mol experimental dG>  (25) 
-45.10840631802634

>  <experimental dG reference field>  (25) 
IC50[nM]

>  <experimental dG reference units>  (25) 
nM

>  <atom.dprop.PartialCharge>  (25) 
0.07692704 -0.68100476 0.07692704 0.08708224 0.119482204 -0.45228595 0.7480625 -0.5650563 -0.53425586 0.10190613 0.12690176 -0.10297877 -0.07464473 -0.09439434 0.2794794 -0.09211816 -0.110386804 -0.12984897 -0.11650548 -0.12984897 -0.110386804 -0.72981143 0.2143128 -0.19764653 -0.035362106 -0.21978652 0.6896167 -0.23448975 -0.23448975 -0.23448975 -0.029705387 -0.16928966 0.20708221 -0.39556268 0.105079964 0.105079964 0.105079964 0.105079964 0.105079964 0.105079964 0.11703719 0.11703719 0.06955692 0.06955692 0.33080804 0.07423344 0.07423344 0.051098377 0.05863132 0.05863132 0.05481556 0.05481556 0.07769839 0.051281057 0.13790627 0.13914546 0.13837783 0.13914546 0.13790627 0.4165657 0.14267987 0.1492005 0.14502531 0.06365443 0.44704738

$$$$
CHEMBL1084935
     RDKit          3D

 70 73  0  0  0  0  0  0  0  0999 V2000
   11.8941   -2.8870    6.6585 C   0  0  0  0  0  0  0  0  0  0  0  0
   13.1611   -3.1833    7.4914 C   0  0  0  0  0  0  0  0  0  0  0  0
   14.1889   -3.9556    6.6529 N   0  0  2  0  0  0  0  0  0  0  0  0
   15.2831   -4.6170    7.5349 C   0  0  0  0  0  0  0  0  0  0  0  0
   14.6484   -5.6321    8.4883 C   0  0  0  0  0  0  0  0  0  0  0  0
   15.6314   -6.4882    9.0155 O   0  0  0  0  0  0  0  0  0  0  0  0
   14.7830   -3.0434    5.5472 C   0  0  0  0  0  0  0  0  0  0  0  0
   14.9397   -3.7821    4.1936 C   0  0  1  0  0  0  0  0  0  0  0  0
   15.0827   -5.3316    4.2335 C   0  0  0  0  0  0  0  0  0  0  0  0
   15.2131   -5.9184    2.8241 C   0  0  0  0  0  0  0  0  0  0  0  0
   14.0995   -5.4193    1.8815 C   0  0  1  0  0  0  0  0  0  0  0  0
   12.7089   -6.0737    2.1363 C   0  0  2  0  0  0  0  0  0  0  0  0
   12.7560   -7.5938    2.0385 C   0  0  0  0  0  0  0  0  0  0  0  0
   12.3233   -8.3792    3.1082 C   0  0  0  0  0  0  0  0  0  0  0  0
   12.4013   -9.7662    3.0214 C   0  0  0  0  0  0  0  0  0  0  0  0
   12.9053  -10.3669    1.8706 C   0  0  0  0  0  0  0  0  0  0  0  0
   13.3256   -9.5903    0.7954 C   0  0  0  0  0  0  0  0  0  0  0  0
   13.2476   -8.2058    0.8797 C   0  0  0  0  0  0  0  0  0  0  0  0
   11.7083   -5.5287    1.2201 N   0  0  0  0  0  0  0  0  0  0  0  0
   11.7889   -4.1985    0.7863 C   0  0  0  0  0  0  0  0  0  0  0  0
   10.7777   -3.7353   -0.0458 C   0  0  0  0  0  0  0  0  0  0  0  0
   10.8328   -2.4457   -0.5434 C   0  0  0  0  0  0  0  0  0  0  0  0
   11.8762   -1.5795   -0.1948 C   0  0  0  0  0  0  0  0  0  0  0  0
   11.9234   -0.1516   -0.7693 C   0  0  0  0  0  0  0  0  0  0  0  0
   12.6677    0.8246    0.1645 C   0  0  0  0  0  0  0  0  0  0  0  0
   10.4765    0.3389   -0.9933 C   0  0  0  0  0  0  0  0  0  0  0  0
   12.6705   -0.1459   -2.1072 C   0  0  0  0  0  0  0  0  0  0  0  0
   12.8668   -2.0505    0.6751 C   0  0  0  0  0  0  0  0  0  0  0  0
   12.8600   -3.3611    1.1455 C   0  0  0  0  0  0  0  0  0  0  0  0
   14.0148   -3.8794    1.9822 C   0  0  1  0  0  0  0  0  0  0  0  0
   13.8256   -3.4715    3.3390 O   0  0  0  0  0  0  0  0  0  0  0  0
   11.1742   -2.2996    7.2500 H   0  0  0  0  0  0  0  0  0  0  0  0
   11.4154   -3.8259    6.3623 H   0  0  0  0  0  0  0  0  0  0  0  0
   12.0785   -2.3275    5.7398 H   0  0  0  0  0  0  0  0  0  0  0  0
   13.6696   -2.2854    7.8652 H   0  0  0  0  0  0  0  0  0  0  0  0
   12.8526   -3.7729    8.3489 H   0  0  0  0  0  0  0  0  0  0  0  0
   15.9752   -5.1154    6.8759 H   0  0  0  0  0  0  0  0  0  0  0  0
   15.8111   -3.8259    8.0549 H   0  0  0  0  0  0  0  0  0  0  0  0
   14.1682   -5.1616    9.3545 H   0  0  0  0  0  0  0  0  0  0  0  0
   13.8946   -6.2297    7.9694 H   0  0  0  0  0  0  0  0  0  0  0  0
   16.1600   -5.9879    9.6528 H   0  0  0  0  0  0  0  0  0  0  0  0
   14.1503   -2.1969    5.3703 H   0  0  0  0  0  0  0  0  0  0  0  0
   15.7253   -2.6313    5.9175 H   0  0  0  0  0  0  0  0  0  0  0  0
   15.8458   -3.3513    3.7378 H   0  0  0  0  0  0  0  0  0  0  0  0
   15.9744   -5.6136    4.7825 H   0  0  0  0  0  0  0  0  0  0  0  0
   14.2321   -5.7899    4.7451 H   0  0  0  0  0  0  0  0  0  0  0  0
   16.1795   -5.6227    2.4155 H   0  0  0  0  0  0  0  0  0  0  0  0
   15.2373   -7.0043    2.8858 H   0  0  0  0  0  0  0  0  0  0  0  0
   14.4132   -5.6373    0.8604 H   0  0  0  0  0  0  0  0  0  0  0  0
   12.3738   -5.8192    3.1443 H   0  0  0  0  0  0  0  0  0  0  0  0
   11.9358   -7.9185    4.0054 H   0  0  0  0  0  0  0  0  0  0  0  0
   12.0658  -10.3743    3.8490 H   0  0  0  0  0  0  0  0  0  0  0  0
   12.9492  -11.4443    1.8028 H   0  0  0  0  0  0  0  0  0  0  0  0
   13.6945  -10.0591   -0.1044 H   0  0  0  0  0  0  0  0  0  0  0  0
   13.5566   -7.6057    0.0367 H   0  0  0  0  0  0  0  0  0  0  0  0
   10.7987   -5.9708    1.2887 H   0  0  0  0  0  0  0  0  0  0  0  0
    9.9449   -4.3656   -0.3156 H   0  0  0  0  0  0  0  0  0  0  0  0
   10.0342   -2.1354   -1.1967 H   0  0  0  0  0  0  0  0  0  0  0  0
   12.5901    1.8750   -0.1283 H   0  0  0  0  0  0  0  0  0  0  0  0
   13.7299    0.5873    0.1975 H   0  0  0  0  0  0  0  0  0  0  0  0
   12.3721    0.7011    1.1918 H   0  0  0  0  0  0  0  0  0  0  0  0
    9.7853   -0.0025   -0.2578 H   0  0  0  0  0  0  0  0  0  0  0  0
   10.0269   -0.0771   -1.9126 H   0  0  0  0  0  0  0  0  0  0  0  0
   10.3268    1.3824   -1.0970 H   0  0  0  0  0  0  0  0  0  0  0  0
   12.6130    0.8052   -2.6352 H   0  0  0  0  0  0  0  0  0  0  0  0
   12.2275   -0.8945   -2.7357 H   0  0  0  0  0  0  0  0  0  0  0  0
   13.7202   -0.4120   -1.9978 H   0  0  0  0  0  0  0  0  0  0  0  0
   13.6877   -1.4191    0.9735 H   0  0  0  0  0  0  0  0  0  0  0  0
   14.9392   -3.4400    1.6016 H   0  0  0  0  0  0  0  0  0  0  0  0
   13.6941   -4.7009    6.2036 H   0  0  0  0  0  0  0  0  0  0  0  0
  1  2  1  0
  1 32  1  0
  1 33  1  0
  1 34  1  0
  2  3  1  0
  2 35  1  0
  2 36  1  0
  3  4  1  0
  3  7  1  0
  3 70  1  6
  4  5  1  0
  4 37  1  0
  4 38  1  0
  5  6  1  0
  5 39  1  0
  5 40  1  0
  6 41  1  0
  7  8  1  0
  7 42  1  0
  7 43  1  0
  8  9  1  0
  8 31  1  0
  8 44  1  6
  9 10  1  0
  9 45  1  0
  9 46  1  0
 10 11  1  0
 10 47  1  0
 10 48  1  0
 11 12  1  0
 11 30  1  0
 11 49  1  6
 12 13  1  0
 12 19  1  0
 12 50  1  1
 13 14  2  0
 13 18  1  0
 14 15  1  0
 14 51  1  0
 15 16  2  0
 15 52  1  0
 16 17  1  0
 16 53  1  0
 17 18  2  0
 17 54  1  0
 18 55  1  0
 19 20  1  0
 19 56  1  0
 20 21  2  0
 20 29  1  0
 21 22  1  0
 21 57  1  0
 22 23  2  0
 22 58  1  0
 23 24  1  0
 23 28  1  0
 24 25  1  0
 24 26  1  0
 24 27  1  0
 25 59  1  0
 25 60  1  0
 25 61  1  0
 26 62  1  0
 26 63  1  0
 26 64  1  0
 27 65  1  0
 27 66  1  0
 27 67  1  0
 28 29  2  0
 28 68  1  0
 29 30  1  0
 30 31  1  0
 30 69  1  6
M  CHG  1   3   1
M  END
>  <ID>  (26) 
CHEMBL1084935

>  <IC50[nM]>  (26) 
19

>  <kcal/mol experimental dG>  (26) 
-10.599110079658544

>  <kJ/mol experimental dG>  (26) 
-44.34667657329135

>  <experimental dG reference field>  (26) 
IC50[nM]

>  <experimental dG reference units>  (26) 
nM

>  <atom.dprop.PartialCharge>  (26) 
-0.13482195 0.104556404 -0.6907461 0.08256915 0.12243336 -0.58436465 0.09667914 0.1230515 -0.11077079 -0.08498201 -0.096590385 0.28375345 -0.09170312 -0.10997178 -0.12943393 -0.11609046 -0.12943393 -0.10997178 -0.7313134 0.17454806 -0.18420543 -0.08000926 -0.09458485 -0.003982689 -0.07980645 -0.07980645 -0.07980645 -0.074706346 -0.15831934 0.20249648 -0.42654198 0.0743205 0.0743205 0.0743205 0.10230631 0.10230631 0.114697784 0.114697784 0.043555368 0.043555368 0.43875644 0.108537465 0.108537465 0.060412485 0.054596744 0.054596744 0.06261437 0.06261437 0.080304846 0.05169609 0.13832131 0.13956052 0.13879289 0.13956052 0.13832131 0.4169807 0.13453105 0.1360423 0.04052952 0.04052952 0.04052952 0.04052952 0.04052952 0.04052952 0.04052952 0.04052952 0.04052952 0.13526218 0.046273462 0.43671694

$$$$
CHEMBL1078998
     RDKit          3D

 48 51  0  0  0  0  0  0  0  0999 V2000
   12.7976    0.8124    0.0757 C   0  0  0  0  0  0  0  0  0  0  0  0
   11.9223   -0.1613   -0.7525 C   0  0  0  0  0  0  0  0  0  0  0  0
   12.4837   -0.2199   -2.1743 C   0  0  0  0  0  0  0  0  0  0  0  0
   10.4601    0.3453   -0.8043 C   0  0  0  0  0  0  0  0  0  0  0  0
   11.8888   -1.5853   -0.1835 C   0  0  0  0  0  0  0  0  0  0  0  0
   10.8508   -2.4597   -0.5444 C   0  0  0  0  0  0  0  0  0  0  0  0
   10.7949   -3.7505   -0.0484 C   0  0  0  0  0  0  0  0  0  0  0  0
   11.8123   -4.2146    0.7836 C   0  0  0  0  0  0  0  0  0  0  0  0
   12.8780   -3.3664    1.1426 C   0  0  0  0  0  0  0  0  0  0  0  0
   12.8759   -2.0519    0.6772 C   0  0  0  0  0  0  0  0  0  0  0  0
   14.0261   -3.8755    1.9883 C   0  0  1  0  0  0  0  0  0  0  0  0
   13.8055   -3.4421    3.3329 O   0  0  0  0  0  0  0  0  0  0  0  0
   14.8759   -3.7853    4.2185 C   0  0  0  0  0  0  0  0  0  0  0  0
   15.0685   -5.3210    4.2539 C   0  0  0  0  0  0  0  0  0  0  0  0
   15.2293   -5.8998    2.8448 C   0  0  0  0  0  0  0  0  0  0  0  0
   14.1243   -5.4049    1.8889 C   0  0  1  0  0  0  0  0  0  0  0  0
   12.7346   -6.0749    2.1322 C   0  0  2  0  0  0  0  0  0  0  0  0
   12.7930   -7.5766    1.9454 C   0  0  0  0  0  0  0  0  0  0  0  0
   12.2219   -8.5635    2.7386 C   0  0  0  0  0  0  0  0  0  0  0  0
   12.4438   -9.8621    2.2888 C   0  0  0  0  0  0  0  0  0  0  0  0
   13.1981   -9.8931    1.1291 C   0  0  0  0  0  0  0  0  0  0  0  0
   13.6519   -8.2955    0.6241 S   0  0  0  0  0  0  0  0  0  0  0  0
   11.7340   -5.5417    1.2135 N   0  0  0  0  0  0  0  0  0  0  0  0
   12.8648    1.8235   -0.3318 H   0  0  0  0  0  0  0  0  0  0  0  0
   13.7971    0.4041    0.0942 H   0  0  0  0  0  0  0  0  0  0  0  0
   12.5322    0.8833    1.1341 H   0  0  0  0  0  0  0  0  0  0  0  0
   12.5385    0.7348   -2.6951 H   0  0  0  0  0  0  0  0  0  0  0  0
   11.7899   -0.8645   -2.7036 H   0  0  0  0  0  0  0  0  0  0  0  0
   13.4739   -0.6659   -2.2106 H   0  0  0  0  0  0  0  0  0  0  0  0
    9.7744   -0.1972   -1.4501 H   0  0  0  0  0  0  0  0  0  0  0  0
   10.2698    1.3637   -1.1111 H   0  0  0  0  0  0  0  0  0  0  0  0
   10.1339    0.2754    0.2174 H   0  0  0  0  0  0  0  0  0  0  0  0
   10.0622   -2.1793   -1.2124 H   0  0  0  0  0  0  0  0  0  0  0  0
    9.9663   -4.3825   -0.3261 H   0  0  0  0  0  0  0  0  0  0  0  0
   13.7100   -1.4444    0.9812 H   0  0  0  0  0  0  0  0  0  0  0  0
   14.9558   -3.4395    1.6104 H   0  0  0  0  0  0  0  0  0  0  0  0
   15.7951   -3.3212    3.8743 H   0  0  0  0  0  0  0  0  0  0  0  0
   14.6645   -3.3979    5.2121 H   0  0  0  0  0  0  0  0  0  0  0  0
   15.9431   -5.5680    4.8576 H   0  0  0  0  0  0  0  0  0  0  0  0
   14.2113   -5.7762    4.7508 H   0  0  0  0  0  0  0  0  0  0  0  0
   16.1982   -5.6115    2.4315 H   0  0  0  0  0  0  0  0  0  0  0  0
   15.2512   -6.9867    2.8952 H   0  0  0  0  0  0  0  0  0  0  0  0
   14.4370   -5.6167    0.8661 H   0  0  0  0  0  0  0  0  0  0  0  0
   12.3917   -5.8158    3.1334 H   0  0  0  0  0  0  0  0  0  0  0  0
   11.6528   -8.3432    3.6240 H   0  0  0  0  0  0  0  0  0  0  0  0
   12.0628  -10.7452    2.7870 H   0  0  0  0  0  0  0  0  0  0  0  0
   13.5002  -10.7531    0.5568 H   0  0  0  0  0  0  0  0  0  0  0  0
   10.8774   -6.0654    1.1650 H   0  0  0  0  0  0  0  0  0  0  0  0
  1  2  1  0
  1 24  1  0
  1 25  1  0
  1 26  1  0
  2  3  1  0
  2  4  1  0
  2  5  1  0
  3 27  1  0
  3 28  1  0
  3 29  1  0
  4 30  1  0
  4 31  1  0
  4 32  1  0
  5  6  2  0
  5 10  1  0
  6  7  1  0
  6 33  1  0
  7  8  2  0
  7 34  1  0
  8  9  1  0
  8 23  1  0
  9 10  2  0
  9 11  1  0
 10 35  1  0
 11 12  1  0
 11 16  1  0
 11 36  1  6
 12 13  1  0
 13 14  1  0
 13 37  1  0
 13 38  1  0
 14 15  1  0
 14 39  1  0
 14 40  1  0
 15 16  1  0
 15 41  1  0
 15 42  1  0
 16 17  1  0
 16 43  1  6
 17 18  1  0
 17 23  1  0
 17 44  1  1
 18 19  2  0
 18 22  1  0
 19 20  1  0
 19 45  1  0
 20 21  2  0
 20 46  1  0
 21 22  1  0
 21 47  1  0
 23 48  1  0
M  END
>  <ID>  (27) 
CHEMBL1078998

>  <IC50[nM]>  (27) 
25

>  <kcal/mol experimental dG>  (27) 
-10.435500502897614

>  <kJ/mol experimental dG>  (27) 
-43.66213410412362

>  <experimental dG reference field>  (27) 
IC50[nM]

>  <experimental dG reference units>  (27) 
nM

>  <atom.dprop.PartialCharge>  (27) 
-0.08405268 -0.008228641 -0.08405268 -0.08405268 -0.099766314 -0.0843558 -0.1864059 0.15666616 -0.14756167 -0.0858975 0.19698358 -0.4101345 0.13688079 -0.117614076 -0.07971371 -0.10562924 0.31109646 -0.1468404 -0.14281178 -0.15819919 -0.18753034 0.06558016 -0.7414395 0.03628344 0.03628344 0.03628344 0.03628344 0.03628344 0.03628344 0.03628344 0.03628344 0.03628344 0.13170123 0.13024087 0.13089243 0.058664475 0.047745023 0.047745023 0.05192419 0.05192419 0.048218712 0.048218712 0.07144767 0.053748444 0.15246147 0.1506371 0.17084856 0.4141101

$$$$
CHEMBL1088740
     RDKit          3D

 42 45  0  0  0  0  0  0  0  0999 V2000
   14.8892   -3.7991    4.1929 C   0  0  0  0  0  0  0  0  0  0  0  0
   15.0808   -5.3250    4.2402 C   0  0  0  0  0  0  0  0  0  0  0  0
   15.2237   -5.9069    2.8274 C   0  0  0  0  0  0  0  0  0  0  0  0
   14.1038   -5.4118    1.8796 C   0  0  1  0  0  0  0  0  0  0  0  0
   12.7087   -6.0667    2.1153 C   0  0  2  0  0  0  0  0  0  0  0  0
   12.7572   -7.5920    2.0339 C   0  0  0  0  0  0  0  0  0  0  0  0
   12.3194   -8.3758    3.1038 C   0  0  0  0  0  0  0  0  0  0  0  0
   12.3980   -9.7668    3.0196 C   0  0  0  0  0  0  0  0  0  0  0  0
   12.9045  -10.3679    1.8688 C   0  0  0  0  0  0  0  0  0  0  0  0
   13.3260   -9.5931    0.7968 C   0  0  0  0  0  0  0  0  0  0  0  0
   13.2504   -8.2090    0.8799 C   0  0  0  0  0  0  0  0  0  0  0  0
   11.7397   -5.5251    1.1637 N   0  0  0  0  0  0  0  0  0  0  0  0
   11.7924   -4.1803    0.7520 C   0  0  0  0  0  0  0  0  0  0  0  0
   10.7746   -3.7011   -0.0615 C   0  0  0  0  0  0  0  0  0  0  0  0
   10.8035   -2.4006   -0.5426 C   0  0  0  0  0  0  0  0  0  0  0  0
   11.8593   -1.5510   -0.1937 C   0  0  0  0  0  0  0  0  0  0  0  0
   11.9084   -0.1473   -0.7566 C   0  0  0  0  0  0  0  0  0  0  0  0
   12.8529   -2.0176    0.6651 C   0  0  0  0  0  0  0  0  0  0  0  0
   12.8644   -3.3330    1.1272 C   0  0  0  0  0  0  0  0  0  0  0  0
   14.0098   -3.8678    1.9787 C   0  0  1  0  0  0  0  0  0  0  0  0
   13.8065   -3.4533    3.3284 O   0  0  0  0  0  0  0  0  0  0  0  0
   15.8099   -3.3288    3.8333 H   0  0  0  0  0  0  0  0  0  0  0  0
   14.2311   -5.7855    4.7467 H   0  0  0  0  0  0  0  0  0  0  0  0
   15.9615   -5.5791    4.8331 H   0  0  0  0  0  0  0  0  0  0  0  0
   15.2499   -6.9959    2.8809 H   0  0  0  0  0  0  0  0  0  0  0  0
   16.1893   -5.6105    2.4108 H   0  0  0  0  0  0  0  0  0  0  0  0
   14.4171   -5.6329    0.8595 H   0  0  0  0  0  0  0  0  0  0  0  0
   12.3631   -5.8134    3.1215 H   0  0  0  0  0  0  0  0  0  0  0  0
   11.9272   -7.9179    3.9995 H   0  0  0  0  0  0  0  0  0  0  0  0
   12.0645  -10.3747    3.8484 H   0  0  0  0  0  0  0  0  0  0  0  0
   12.9482  -11.4455    1.8024 H   0  0  0  0  0  0  0  0  0  0  0  0
   13.6941  -10.0607   -0.1056 H   0  0  0  0  0  0  0  0  0  0  0  0
   13.5643   -7.6071    0.0381 H   0  0  0  0  0  0  0  0  0  0  0  0
   10.9595   -6.1267    0.9492 H   0  0  0  0  0  0  0  0  0  0  0  0
    9.9494   -4.3500   -0.3377 H   0  0  0  0  0  0  0  0  0  0  0  0
   10.0192   -2.0503   -1.1980 H   0  0  0  0  0  0  0  0  0  0  0  0
   12.3953    0.5387   -0.0602 H   0  0  0  0  0  0  0  0  0  0  0  0
   13.6797   -1.3606    0.9301 H   0  0  0  0  0  0  0  0  0  0  0  0
   14.9415   -3.4345    1.6021 H   0  0  0  0  0  0  0  0  0  0  0  0
   10.9014    0.2420   -0.9190 H   0  0  0  0  0  0  0  0  0  0  0  0
   12.4520   -0.1379   -1.7028 H   0  0  0  0  0  0  0  0  0  0  0  0
   14.7141   -3.3944    5.1910 H   0  0  0  0  0  0  0  0  0  0  0  0
  1  2  1  0
  1 21  1  0
  1 22  1  0
  1 42  1  0
  2  3  1  0
  2 23  1  0
  2 24  1  0
  3  4  1  0
  3 25  1  0
  3 26  1  0
  4  5  1  0
  4 20  1  0
  4 27  1  6
  5  6  1  0
  5 12  1  0
  5 28  1  1
  6  7  2  0
  6 11  1  0
  7  8  1  0
  7 29  1  0
  8  9  2  0
  8 30  1  0
  9 10  1  0
  9 31  1  0
 10 11  2  0
 10 32  1  0
 11 33  1  0
 12 13  1  0
 12 34  1  0
 13 14  2  0
 13 19  1  0
 14 15  1  0
 14 35  1  0
 15 16  2  0
 15 36  1  0
 16 17  1  0
 16 18  1  0
 17 37  1  0
 17 40  1  0
 17 41  1  0
 18 19  2  0
 18 38  1  0
 19 20  1  0
 20 21  1  0
 20 39  1  6
M  END
>  <ID>  (28) 
CHEMBL1088740

>  <IC50[nM]>  (28) 
420

>  <kcal/mol experimental dG>  (28) 
-8.753493830990028

>  <kJ/mol experimental dG>  (28) 
-36.62461818886228

>  <experimental dG reference field>  (28) 
IC50[nM]

>  <experimental dG reference units>  (28) 
nM

>  <atom.dprop.PartialCharge>  (28) 
0.13590825 -0.116680086 -0.07548325 -0.10235362 0.27681625 -0.09651695 -0.115060195 -0.13452257 -0.12117898 -0.13452257 -0.115060195 -0.7364731 0.16091987 -0.18714263 -0.09121834 -0.114031985 -0.052752465 -0.09299679 -0.1458748 0.1986717 -0.4107681 0.04715982 0.05082676 0.05082676 0.046028927 0.046028927 0.07265513 0.047040172 0.13323255 0.13447164 0.13370404 0.13447164 0.13323255 0.41189218 0.12920824 0.13082269 0.044516798 0.12946074 0.05854753 0.044516798 0.044516798 0.04715982

$$$$
