61a
     RDKit          3D

 58 61  0  0  1  0  0  0  0  0999 V2000
   13.4910   13.6830   24.2620 C   0  0  0  0  0  0  0  0  0  0  0  0
   13.0870   11.3290   24.2570 C   0  0  0  0  0  0  0  0  0  0  0  0
   12.0450   12.1130   18.7650 C   0  0  0  0  0  0  0  0  0  0  0  0
   13.4920   13.7250   22.8780 C   0  0  0  0  0  0  0  0  0  0  0  0
    9.6640   11.8460   18.7590 C   0  0  0  0  0  0  0  0  0  0  0  0
   13.2890   12.5380   22.1840 C   0  0  0  0  0  0  0  0  0  0  0  0
   15.1480   13.3900   17.0330 C   0  0  0  0  0  0  0  0  0  0  0  0
   13.2680   12.1870   17.9760 C   0  0  0  0  0  0  0  0  0  0  0  0
   15.6020   12.1270   16.4070 C   0  0  0  0  0  0  0  0  0  0  0  0
   13.7530   16.1740   20.0570 C   0  0  0  0  0  0  0  0  0  0  0  0
   14.4820   15.1440   19.2210 C   0  0  0  0  0  0  0  0  0  0  0  0
    8.1390    8.9960   16.7620 C   0  0  0  0  0  0  0  0  0  0  0  0
    8.6850   10.1270   15.9230 C   0  0  0  0  0  0  0  0  0  0  0  0
    9.6600   12.0130   20.1250 C   0  0  0  0  0  0  0  0  0  0  0  0
   10.8360   12.2180   20.8130 C   0  0  0  0  0  0  0  0  0  0  0  0
   10.8650   11.8950   18.0800 C   0  0  0  0  0  0  0  0  0  0  0  0
   12.0480   12.2630   20.1420 C   0  0  0  0  0  0  0  0  0  0  0  0
   13.2710   12.5070   24.9400 C   0  0  0  0  0  0  0  0  0  0  0  0
   13.1100   11.3550   22.8810 C   0  0  0  0  0  0  0  0  0  0  0  0
   13.6720   11.0640   17.3850 C   0  0  0  0  0  0  0  0  0  0  0  0
   14.0380   13.3810   17.7830 C   0  0  0  0  0  0  0  0  0  0  0  0
   13.7820   15.0690   22.2680 C   0  0  0  0  0  0  0  0  0  0  0  0
   12.8960   15.5460   21.1390 C   0  0  0  0  0  0  0  0  0  0  0  0
   15.1910    9.7730   16.0050 C   0  0  0  0  0  0  0  0  0  0  0  0
   14.8030   11.0190   16.6170 N   0  0  0  0  0  0  0  0  0  0  0  0
    8.3730   11.6210   18.1590 N   0  0  0  0  0  0  0  0  0  0  0  0
   16.6280   12.1360   15.7470 O   0  0  0  0  0  0  0  0  0  0  0  0
    6.6460   11.6820   16.2620 O   0  0  0  0  0  0  0  0  0  0  0  0
    8.8830   12.7380   15.8410 O   0  0  0  0  0  0  0  0  0  0  0  0
   13.2800   12.4880   20.7900 O   0  0  0  0  0  0  0  0  0  0  0  0
   13.5160   14.5060   18.3970 O   0  0  0  0  0  0  0  0  0  0  0  0
   13.2620   12.5140   26.2810 F   0  0  0  0  0  0  0  0  0  0  0  0
   12.9100   10.2060   22.2260 F   0  0  0  0  0  0  0  0  0  0  0  0
    8.0810   11.7050   16.4670 S   0  0  0  0  0  0  0  0  0  0  0  0
   13.6652   14.5851   24.8297 H   0  0  0  0  0  0  0  0  0  0  0  0
   12.9286   10.4090   24.8001 H   0  0  0  0  0  0  0  0  0  0  0  0
   15.7096   14.3000   16.8817 H   0  0  0  0  0  0  0  0  0  0  0  0
   13.1269   16.7884   19.4100 H   0  0  0  0  0  0  0  0  0  0  0  0
   14.4774   16.8480   20.5142 H   0  0  0  0  0  0  0  0  0  0  0  0
   14.9439   14.4058   19.8766 H   0  0  0  0  0  0  0  0  0  0  0  0
   15.2209   15.6429   18.5939 H   0  0  0  0  0  0  0  0  0  0  0  0
    8.5333    8.0481   16.3958 H   0  0  0  0  0  0  0  0  0  0  0  0
    8.4381    9.1363   17.8007 H   0  0  0  0  0  0  0  0  0  0  0  0
    7.0511    8.9863   16.6959 H   0  0  0  0  0  0  0  0  0  0  0  0
    8.4070    9.9721   14.8805 H   0  0  0  0  0  0  0  0  0  0  0  0
    9.7740   10.1199   15.9694 H   0  0  0  0  0  0  0  0  0  0  0  0
    8.7279   11.9841   20.6698 H   0  0  0  0  0  0  0  0  0  0  0  0
   10.8191   12.3454   21.8853 H   0  0  0  0  0  0  0  0  0  0  0  0
   10.8794   11.7620   17.0083 H   0  0  0  0  0  0  0  0  0  0  0  0
   13.1016   10.1549   17.5057 H   0  0  0  0  0  0  0  0  0  0  0  0
   14.8216   15.0960   21.9416 H   0  0  0  0  0  0  0  0  0  0  0  0
   13.7942   15.8230   23.0550 H   0  0  0  0  0  0  0  0  0  0  0  0
   12.3497   14.6992   20.7236 H   0  0  0  0  0  0  0  0  0  0  0  0
   12.1908   16.2855   21.5185 H   0  0  0  0  0  0  0  0  0  0  0  0
   14.4664    9.0003   16.2618 H   0  0  0  0  0  0  0  0  0  0  0  0
   15.2238    9.8941   14.9223 H   0  0  0  0  0  0  0  0  0  0  0  0
   16.1766    9.4810   16.3675 H   0  0  0  0  0  0  0  0  0  0  0  0
    7.5774   11.3999   18.7406 H   0  0  0  0  0  0  0  0  0  0  0  0
  1  4  2  0
  1 18  1  0
  1 35  1  0
  2 18  2  0
  2 19  1  0
  2 36  1  0
  3  8  1  0
  3 16  1  0
  3 17  2  0
  4  6  1  0
  4 22  1  0
  5 14  1  0
  5 16  2  0
  5 26  1  0
  6 19  2  0
  6 30  1  0
  7  9  1  0
  7 21  2  0
  7 37  1  0
  8 20  2  0
  8 21  1  0
  9 25  1  0
  9 27  2  0
 10 11  1  0
 10 23  1  0
 10 38  1  0
 10 39  1  0
 11 31  1  0
 11 40  1  0
 11 41  1  0
 12 13  1  0
 12 42  1  0
 12 43  1  0
 12 44  1  0
 13 34  1  0
 13 45  1  0
 13 46  1  0
 14 15  2  0
 14 47  1  0
 15 17  1  0
 15 48  1  0
 16 49  1  0
 17 30  1  0
 18 32  1  0
 19 33  1  0
 20 25  1  0
 20 50  1  0
 21 31  1  0
 22 23  1  0
 22 51  1  0
 22 52  1  0
 23 53  1  0
 23 54  1  0
 24 25  1  0
 24 55  1  0
 24 56  1  0
 24 57  1  0
 26 34  1  0
 26 58  1  0
 28 34  2  0
 29 34  2  0
M  END
>  <i_m_Source_File_Index>  (1) 
1

>  <b_m_subgroup_collapsed>  (1) 
0

>  <r_exp_dg>  (1) 
-12

>  <s_m_Source_File>  (1) 
wagner_brd4_ligands.sdf

>  <s_m_Source_Path>  (1) 
path\input_structures\original_structures\bayer_macrocycles

>  <s_m_entry_id>  (1) 
7

>  <s_m_entry_name>  (1) 
wagner_brd4_ligands.1

>  <s_m_subgroup_title>  (1) 
Bayer_macrocycles->BRD4->wagner_brd4_ligands

>  <s_m_subgroupid>  (1) 
Bayer_macrocycles->BRD4->wagner_brd4_ligands

>  <experimental dG reference units>  (1) 
kcal/mol

>  <experimental dG reference field>  (1) 
r_exp_dg

>  <kJ/mol experimental dG>  (1) 
-50.208

>  <kcal/mol experimental dG>  (1) 
-12.0

>  <AmberAM1BCCCache>  (1) 
gASVqQQAAAAAAABdlCiMFm51bXB5Ll9jb3JlLm11bHRpYXJyYXmUjAZzY2FsYXKUk5SMBW51bXB5lIwFZHR5cGWUk5SMAmY4lImIh5RSlChLA4wBPJROTk5K/////0r/////SwB0lGJDCH9b81iN4QDAlIaUUpRoA2gJQwjOfblsyJgDwJSGlFKUaANoCUMIRIJt300wy7+UhpRSlGgDaAlDCKmRI5WnqM6/lIaUUpRoA2gJQwgIR1WErX73P5SGlFKUaANoCUMIhOBABIfX1j+UhpRSlGgDaAlDCCuwzQoogxDAlIaUUpRoA2gJQwji1lhn9Gf8v5SGlFKUaANoCUMI5KpuWfmjIECUhpRSlGgDaAlDCK50ioP7EfS/lIaUUpRoA2gJQwjmk7+rY4P4P5SGlFKUaANoCUMIfefDzajr6b+UhpRSlGgDaAlDCOWklQpBSg7AlIaUUpRoA2gJQwgRUJR2aZ35v5SGlFKUaANoCUMIGwwv2RBe/r+UhpRSlGgDaAlDCNgavgRNp/e/lIaUUpRoA2gJQwg9ODQm7Ar2P5SGlFKUaANoCUMI3toN/7XZ/T+UhpRSlGgDaAlDCA0gnUs/Iv0/lIaUUpRoA2gJQwhAZhWuP/LhP5SGlFKUaANoCUMI2UA0hRLPBUCUhpRSlGgDaAlDCAaKeUFoZeG/lIaUUpRoA2gJQwg8tUTfAOLpv5SGlFKUaANoCUMIh4syRe+V5j+UhpRSlGgDaAlDCLazcEzyXhDAlIaUUpRoA2gJQwjBMjYXeGwiwJSGlFKUaANoCUMIQj34E8xIHsCUhpRSlGgDaAlDCOwDM6KPhx7AlIaUUpRoA2gJQwjsAzOij4cewJSGlFKUaANoCUMI6+JMobCwBcCUhpRSlGgDaAlDCB44cJRuiw7AlIaUUpRoA2gJQwjRN2tpN4r4v5SGlFKUaANoCUMInMuRsbq69r+UhpRSlGgDaAlDCD+FczJ4IjFAlIaUUpRoA2gJQwhDpszkMej9P5SGlFKUaANoCUMIgQTP9h4MAECUhpRSlGgDaAlDCHvbolZO3v8/lIaUUpRoA2gJQwj3yz06wA7mP5SGlFKUaANoCUMI98s9OsAO5j+UhpRSlGgDaAlDCB5I0MypMOU/lIaUUpRoA2gJQwgeSNDMqTDlP5SGlFKUaANoCUMIzF0qmRuD4j+UhpRSlGgDaAlDCMxdKpkbg+I/lIaUUpRoA2gJQwjMXSqZG4PiP5SGlFKUaANoCUMIeqG2WvTt9T+UhpRSlGgDaAlDCHqhtlr07fU/lIaUUpRoA2gJQwhxj4LnyaEAQJSGlFKUaANoCUMIocLk8YPG/D+UhpRSlGgDaAlDCK2IiiivAPs/lIaUUpRoA2gJQwjI08d7ISL+P5SGlFKUaANoCUMIR+4DTvvF6D+UhpRSlGgDaAlDCEfuA077xeg/lIaUUpRoA2gJQwi2BG5UZMvjP5SGlFKUaANoCUMItgRuVGTL4z+UhpRSlGgDaAlDCCUNtkcQ8OY/lIaUUpRoA2gJQwglDbZHEPDmP5SGlFKUaANoCUMIJQ22RxDw5j+UhpRSlGgDaAlDCE6SRLuGrRVAlIaUUpRlLg==

$$$$
25e
     RDKit          3D

 54 56  0  0  1  0  0  0  0  0999 V2000
    9.4675   11.9637   20.2839 C   0  0  0  0  0  0  0  0  0  0  0  0
   10.6494   11.8548   20.9830 C   0  0  0  0  0  0  0  0  0  0  0  0
   12.8604   13.4063   22.8147 C   0  0  0  0  0  0  0  0  0  0  0  0
   12.9565   13.6521   24.1690 C   0  0  0  0  0  0  0  0  0  0  0  0
   10.6862   12.3834   18.2773 C   0  0  0  0  0  0  0  0  0  0  0  0
   13.6335   11.3814   24.5434 C   0  0  0  0  0  0  0  0  0  0  0  0
   11.8735   12.2622   18.9715 C   0  0  0  0  0  0  0  0  0  0  0  0
    9.4778   12.2248   18.9296 C   0  0  0  0  0  0  0  0  0  0  0  0
   11.8571   11.9994   20.3278 C   0  0  0  0  0  0  0  0  0  0  0  0
   13.1483   12.1467   22.3302 C   0  0  0  0  0  0  0  0  0  0  0  0
   13.3415   12.6402   25.0229 C   0  0  0  0  0  0  0  0  0  0  0  0
   13.5376   11.1426   23.1891 C   0  0  0  0  0  0  0  0  0  0  0  0
   15.1232   13.4517   17.4001 C   0  0  0  0  0  0  0  0  0  0  0  0
   13.4324   11.2582   17.5264 C   0  0  0  0  0  0  0  0  0  0  0  0
   13.1196   12.3531   18.2201 C   0  0  0  0  0  0  0  0  0  0  0  0
   14.0093   13.4805   18.1487 C   0  0  0  0  0  0  0  0  0  0  0  0
   15.4612   12.2247   16.6414 C   0  0  0  0  0  0  0  0  0  0  0  0
   14.5285   16.1585   20.4330 C   0  0  0  0  0  0  0  0  0  0  0  0
    7.7868    9.2180   17.6464 C   0  0  0  0  0  0  0  0  0  0  0  0
   14.8110    9.9475   16.0444 C   0  0  0  0  0  0  0  0  0  0  0  0
   14.5439   14.7242   19.9661 C   0  0  0  0  0  0  0  0  0  0  0  0
    8.5869   10.1009   16.7187 C   0  0  0  0  0  0  0  0  0  0  0  0
   14.5660   11.1746   16.7607 N   0  0  0  0  0  0  0  0  0  0  0  0
    8.2016   12.3477   18.2619 N   0  0  0  0  0  0  0  0  0  0  0  0
   16.4864   12.2168   15.9732 O   0  0  0  0  0  0  0  0  0  0  0  0
    6.4993   11.6555   16.4630 O   0  0  0  0  0  0  0  0  0  0  0  0
    8.7259   12.5227   15.7270 O   0  0  0  0  0  0  0  0  0  0  0  0
   13.0814   11.8586   20.9747 O   0  0  0  0  0  0  0  0  0  0  0  0
   13.6344   14.5959   18.8757 O   0  0  0  0  0  0  0  0  0  0  0  0
   13.4333   12.8821   26.3393 F   0  0  0  0  0  0  0  0  0  0  0  0
   13.8202    9.9212   22.7086 F   0  0  0  0  0  0  0  0  0  0  0  0
    7.9327   11.7556   16.6667 S   0  0  0  0  0  0  0  0  0  0  0  0
    8.5242   11.8444   20.7960 H   0  0  0  0  0  0  0  0  0  0  0  0
   10.6325   11.6562   22.0445 H   0  0  0  0  0  0  0  0  0  0  0  0
   12.5616   14.1969   22.1423 H   0  0  0  0  0  0  0  0  0  0  0  0
   12.7305   14.6344   24.5570 H   0  0  0  0  0  0  0  0  0  0  0  0
   10.6988   12.6030   17.2200 H   0  0  0  0  0  0  0  0  0  0  0  0
   13.9321   10.5994   25.2259 H   0  0  0  0  0  0  0  0  0  0  0  0
   15.7654   14.3188   17.3541 H   0  0  0  0  0  0  0  0  0  0  0  0
   12.7824   10.3962   17.5558 H   0  0  0  0  0  0  0  0  0  0  0  0
   15.2191   16.2767   21.2680 H   0  0  0  0  0  0  0  0  0  0  0  0
   14.8335   16.8108   19.6148 H   0  0  0  0  0  0  0  0  0  0  0  0
   13.5218   16.4257   20.7542 H   0  0  0  0  0  0  0  0  0  0  0  0
    8.2145    8.2154   17.6534 H   0  0  0  0  0  0  0  0  0  0  0  0
    7.8136    9.6309   18.6548 H   0  0  0  0  0  0  0  0  0  0  0  0
    6.7539    9.1694   17.3016 H   0  0  0  0  0  0  0  0  0  0  0  0
   15.7428   10.0326   15.4851 H   0  0  0  0  0  0  0  0  0  0  0  0
   14.8868    9.1220   16.7521 H   0  0  0  0  0  0  0  0  0  0  0  0
   13.9892    9.7591   15.3537 H   0  0  0  0  0  0  0  0  0  0  0  0
   14.2273   14.0736   20.7813 H   0  0  0  0  0  0  0  0  0  0  0  0
   15.5483   14.4614   19.6338 H   0  0  0  0  0  0  0  0  0  0  0  0
    8.5775    9.6754   15.7152 H   0  0  0  0  0  0  0  0  0  0  0  0
    9.6243   10.1313   17.0519 H   0  0  0  0  0  0  0  0  0  0  0  0
    7.4269   12.7941   18.7315 H   0  0  0  0  0  0  0  0  0  0  0  0
  1  2  2  0
  1  8  1  0
  1 33  1  0
  2  9  1  0
  2 34  1  0
  3  4  2  0
  3 10  1  0
  3 35  1  0
  4 11  1  0
  4 36  1  0
  5  7  1  0
  5  8  2  0
  5 37  1  0
  6 11  2  0
  6 12  1  0
  6 38  1  0
  7  9  2  0
  7 15  1  0
  8 24  1  0
  9 28  1  0
 10 12  2  0
 10 28  1  0
 11 30  1  0
 12 31  1  0
 13 16  2  0
 13 17  1  0
 13 39  1  0
 14 15  2  0
 14 23  1  0
 14 40  1  0
 15 16  1  0
 16 29  1  0
 17 23  1  0
 17 25  2  0
 18 21  1  0
 18 41  1  0
 18 42  1  0
 18 43  1  0
 19 22  1  0
 19 44  1  0
 19 45  1  0
 19 46  1  0
 20 23  1  0
 20 47  1  0
 20 48  1  0
 20 49  1  0
 21 29  1  0
 21 50  1  0
 21 51  1  0
 22 32  1  0
 22 52  1  0
 22 53  1  0
 24 32  1  0
 24 54  1  0
 26 32  2  0
 27 32  2  0
M  END
>  <i_m_Source_File_Index>  (2) 
2

>  <b_m_subgroup_collapsed>  (2) 
0

>  <r_exp_dg>  (2) 
-11.3

>  <s_m_Source_File>  (2) 
wagner_brd4_ligands.sdf

>  <s_m_Source_Path>  (2) 
path\input_structures\original_structures\bayer_macrocycles

>  <s_m_entry_id>  (2) 
8

>  <s_m_entry_name>  (2) 
wagner_brd4_ligands.2

>  <s_m_subgroup_title>  (2) 
Bayer_macrocycles->BRD4->wagner_brd4_ligands

>  <s_m_subgroupid>  (2) 
Bayer_macrocycles->BRD4->wagner_brd4_ligands

>  <experimental dG reference units>  (2) 
kcal/mol

>  <experimental dG reference field>  (2) 
r_exp_dg

>  <kJ/mol experimental dG>  (2) 
-47.2792

>  <kcal/mol experimental dG>  (2) 
-11.3

>  <AmberAM1BCCCache>  (2) 
gASVXQQAAAAAAABdlCiMFm51bXB5Ll9jb3JlLm11bHRpYXJyYXmUjAZzY2FsYXKUk5SMBW51bXB5lIwFZHR5cGWUk5SMAmY4lImIh5RSlChLA4wBPJROTk5K/////0r/////SwB0lGJDCKJC4wn9Kvu/lIaUUpRoA2gJQwgbI3PC2mz8v5SGlFKUaANoCUMI+kG8f9/78L+UhpRSlGgDaAlDCAVYczjVgQDAlIaUUpRoA2gJQwjvpbc3HDX3v5SGlFKUaANoCUMIdhN5Q+Q9A8CUhpRSlGgDaAlDCBhHpuMFBqs/lIaUUpRoA2gJQwgFMBGb42/5P5SGlFKUaANoCUMI7hbATDg68D+UhpRSlGgDaAlDCAFsdGhMa9c/lIaUUpRoA2gJQwj0lKMYcJT9P5SGlFKUaANoCUMICYKTuo5V/j+UhpRSlGgDaAlDCEWR394FfRHAlIaUUpRoA2gJQwgx+axMZ1joP5SGlFKUaANoCUMIHTH+Eajo/b+UhpRSlGgDaAlDCDGrdK72KQZAlIaUUpRoA2gJQwhDxlRyprIgQJSGlFKUaANoCUMIFRZ/OF3c+L+UhpRSlGgDaAlDCH528NQEVuq/lIaUUpRoA2gJQwi2kVfsoljmP5SGlFKUaANoCUMI5yli3Z6j9z+UhpRSlGgDaAlDCPPOEIF4JA7AlIaUUpRoA2gJQwgM484U0EQQwJSGlFKUaANoCUMIIS8J3LNwIsCUhpRSlGgDaAlDCC8C85GzVx7AlIaUUpRoA2gJQwgbMDkwnY0ewJSGlFKUaANoCUMIGzA5MJ2NHsCUhpRSlGgDaAlDCF821K63+QfAlIaUUpRoA2gJQwhAJ/p7gbQOwJSGlFKUaANoCUMIb/BfM/ZR+L+UhpRSlGgDaAlDCF03HFTDffW/lIaUUpRoA2gJQwgz+vHO9CAxQJSGlFKUaANoCUMIH2qLyEqXAECUhpRSlGgDaAlDCOhTA8wGF/w/lIaUUpRoA2gJQwhaKV+4i8n9P5SGlFKUaANoCUMI5R9XCRsq/j+UhpRSlGgDaAlDCP5A820l2Pw/lIaUUpRoA2gJQwjxdVWjlx4AQJSGlFKUaANoCUMI6fbeEojM/z+UhpRSlGgDaAlDCCd1v5SjJgBAlIaUUpRoA2gJQwhippQeyHrjP5SGlFKUaANoCUMIYqaUHsh64z+UhpRSlGgDaAlDCGKmlB7IeuM/lIaUUpRoA2gJQwiKlytn6a7iP5SGlFKUaANoCUMIipcrZ+mu4j+UhpRSlGgDaAlDCIqXK2fpruI/lIaUUpRoA2gJQwjmmZJ/+f/mP5SGlFKUaANoCUMI5pmSf/n/5j+UhpRSlGgDaAlDCOaZkn/5/+Y/lIaUUpRoA2gJQwgXQ8DwqHDnP5SGlFKUaANoCUMIF0PA8Khw5z+UhpRSlGgDaAlDCO8mC1oqt/U/lIaUUpRoA2gJQwjvJgtaKrf1P5SGlFKUaANoCUMIYJi9GyGxFUCUhpRSlGUu

$$$$
11
     RDKit          3D

 39 41  0  0  1  0  0  0  0  0999 V2000
   13.4695   13.5891   24.2201 C   0  0  0  0  0  0  0  0  0  0  0  0
    9.4715   13.5864   20.3260 C   0  0  0  0  0  0  0  0  0  0  0  0
   10.8403   13.7460   18.3559 C   0  0  0  0  0  0  0  0  0  0  0  0
   13.3924   11.1063   23.0107 C   0  0  0  0  0  0  0  0  0  0  0  0
   13.1181   13.4908   22.8890 C   0  0  0  0  0  0  0  0  0  0  0  0
   11.8527   13.1109   19.0462 C   0  0  0  0  0  0  0  0  0  0  0  0
   15.3711   13.5750   17.8709 C   0  0  0  0  0  0  0  0  0  0  0  0
   14.2331   13.7751   18.5761 C   0  0  0  0  0  0  0  0  0  0  0  0
   14.4037   10.3837   16.0909 C   0  0  0  0  0  0  0  0  0  0  0  0
   13.7965   12.4540   24.9348 C   0  0  0  0  0  0  0  0  0  0  0  0
    9.6463   13.9960   19.0165 C   0  0  0  0  0  0  0  0  0  0  0  0
   13.7714   11.2119   24.3317 C   0  0  0  0  0  0  0  0  0  0  0  0
   10.4779   12.9335   21.0106 C   0  0  0  0  0  0  0  0  0  0  0  0
   13.0625   12.2416   22.2980 C   0  0  0  0  0  0  0  0  0  0  0  0
   11.6834   12.7102   20.3584 C   0  0  0  0  0  0  0  0  0  0  0  0
   13.1276   12.8303   18.3397 C   0  0  0  0  0  0  0  0  0  0  0  0
   15.4661   12.3878   16.9668 C   0  0  0  0  0  0  0  0  0  0  0  0
   15.2120   15.4623   19.8058 C   0  0  0  0  0  0  0  0  0  0  0  0
   13.1899   11.7955   17.5676 N   0  0  0  0  0  0  0  0  0  0  0  0
   14.3660   11.5671   16.9284 N   0  0  0  0  0  0  0  0  0  0  0  0
   16.4988   12.1761   16.3245 O   0  0  0  0  0  0  0  0  0  0  0  0
   12.7471   12.0501   20.9614 O   0  0  0  0  0  0  0  0  0  0  0  0
   13.9822   14.8191   19.4661 O   0  0  0  0  0  0  0  0  0  0  0  0
   13.4890   14.5546   24.7036 H   0  0  0  0  0  0  0  0  0  0  0  0
    8.5356   13.7757   20.8306 H   0  0  0  0  0  0  0  0  0  0  0  0
   10.9882   14.0359   17.3261 H   0  0  0  0  0  0  0  0  0  0  0  0
   13.3542   10.1371   22.5357 H   0  0  0  0  0  0  0  0  0  0  0  0
   12.8909   14.3822   22.3233 H   0  0  0  0  0  0  0  0  0  0  0  0
   16.1940   14.2680   17.9658 H   0  0  0  0  0  0  0  0  0  0  0  0
   13.4583    9.8479   16.1754 H   0  0  0  0  0  0  0  0  0  0  0  0
   14.5630   10.6771   15.0533 H   0  0  0  0  0  0  0  0  0  0  0  0
   15.2183    9.7353   16.4138 H   0  0  0  0  0  0  0  0  0  0  0  0
   14.0751   12.5325   25.9753 H   0  0  0  0  0  0  0  0  0  0  0  0
    8.8504   14.5139   18.5019 H   0  0  0  0  0  0  0  0  0  0  0  0
   14.0459   10.3272   24.8871 H   0  0  0  0  0  0  0  0  0  0  0  0
   10.3169   12.6102   22.0284 H   0  0  0  0  0  0  0  0  0  0  0  0
   15.0159   16.2783   20.5014 H   0  0  0  0  0  0  0  0  0  0  0  0
   15.8830   14.7411   20.2724 H   0  0  0  0  0  0  0  0  0  0  0  0
   15.6767   15.8589   18.9031 H   0  0  0  0  0  0  0  0  0  0  0  0
  1  5  2  0
  1 10  1  0
  1 24  1  0
  2 11  2  0
  2 13  1  0
  2 25  1  0
  3  6  2  0
  3 11  1  0
  3 26  1  0
  4 12  1  0
  4 14  2  0
  4 27  1  0
  5 14  1  0
  5 28  1  0
  6 15  1  0
  6 16  1  0
  7  8  2  0
  7 17  1  0
  7 29  1  0
  8 16  1  0
  8 23  1  0
  9 20  1  0
  9 30  1  0
  9 31  1  0
  9 32  1  0
 10 12  2  0
 10 33  1  0
 11 34  1  0
 12 35  1  0
 13 15  2  0
 13 36  1  0
 14 22  1  0
 15 22  1  0
 16 19  2  0
 17 20  1  0
 17 21  2  0
 18 23  1  0
 18 37  1  0
 18 38  1  0
 18 39  1  0
 19 20  1  0
M  END
>  <i_m_Source_File_Index>  (3) 
3

>  <b_m_subgroup_collapsed>  (3) 
0

>  <r_exp_dg>  (3) 
-8.2

>  <s_m_Source_File>  (3) 
wagner_brd4_ligands.sdf

>  <s_m_Source_Path>  (3) 
path\input_structures\original_structures\bayer_macrocycles

>  <s_m_entry_id>  (3) 
9

>  <s_m_entry_name>  (3) 
wagner_brd4_ligands.3

>  <s_m_subgroup_title>  (3) 
Bayer_macrocycles->BRD4->wagner_brd4_ligands

>  <s_m_subgroupid>  (3) 
Bayer_macrocycles->BRD4->wagner_brd4_ligands

>  <experimental dG reference units>  (3) 
kcal/mol

>  <experimental dG reference field>  (3) 
r_exp_dg

>  <kJ/mol experimental dG>  (3) 
-34.3088

>  <kcal/mol experimental dG>  (3) 
-8.2

>  <AmberAM1BCCCache>  (3) 
gASVQAMAAAAAAABdlCiMFm51bXB5Ll9jb3JlLm11bHRpYXJyYXmUjAZzY2FsYXKUk5SMBW51bXB5lIwFZHR5cGWUk5SMAmY4lImIh5RSlChLA4wBPJROTk5K/////0r/////SwB0lGJDCE2UDF+DjvS/lIaUUpRoA2gJQwgLzTx5J0vyv5SGlFKUaANoCUMIxU0S8Ktr7b+UhpRSlGgDaAlDCGy4kXmHU/2/lIaUUpRoA2gJQwhsuJF5h1P9v5SGlFKUaANoCUMI/exAYYYa9b+UhpRSlGgDaAlDCNzFOYIi5A/AlIaUUpRoA2gJQwhyqYEPc9LxP5SGlFKUaANoCUMIMHcCIcvI8T+UhpRSlGgDaAlDCCjXa7K1Gfy/lIaUUpRoA2gJQwiDv9f8Gwv9v5SGlFKUaANoCUMITZQMX4OO9L+UhpRSlGgDaAlDCKakebgN4QDAlIaUUpRoA2gJQwgbH2N2YEHzP5SGlFKUaANoCUMIzIfihVVK+T+UhpRSlGgDaAlDCMpn04Td1BFAlIaUUpRoA2gJQwjqv1g/FhggQJSGlFKUaANoCUMI9aLQ43Yf9D+UhpRSlGgDaAlDCHmdZxXdsRHAlIaUUpRoA2gJQwjg2U8qKtcCwJSGlFKUaANoCUMIsEMtybNxHcCUhpRSlGgDaAlDCOyvQG5HjgbAlIaUUpRoA2gJQwiOsB5fIqgMwJSGlFKUaANoCUMI8ekeN8l1+T+UhpRSlGgDaAlDCDflmt8Qpvk/lIaUUpRoA2gJQwjXyILSvsf6P5SGlFKUaANoCUMIA6NiFvxJ/D+UhpRSlGgDaAlDCAOjYhb8Sfw/lIaUUpRoA2gJQwg5IgmgygcAQJSGlFKUaANoCUMIZZ28VCSG5z+UhpRSlGgDaAlDCGWdvFQkhuc/lIaUUpRoA2gJQwhlnbxUJIbnP5SGlFKUaANoCUMIrO6ijoFF+T+UhpRSlGgDaAlDCHzgFohY1vk/lIaUUpRoA2gJQwjx6R43yXX5P5SGlFKUaANoCUMIA6NiFvxJ/D+UhpRSlGgDaAlDCILyBHwaIeQ/lIaUUpRoA2gJQwiC8gR8GiHkP5SGlFKUaANoCUMIgvIEfBoh5D+UhpRSlGUu

$$$$
